
#=======================================================================
data_global
#=======================================================================

_audit_creation_method                   'Jana2006 Version : 28/02/2013'


# 1. PROCESSING SUMMARY (IUCr Office Use Only)

_journal_date_recd_electronic            ?
_journal_date_to_coeditor                ?
_journal_date_from_coeditor              ?
_journal_date_accepted                   ?
_journal_date_printers_first             ?
_journal_date_printers_final             ?
_journal_date_proofs_out                 ?
_journal_date_proofs_in                  ?
_journal_coeditor_name                   ?
_journal_coeditor_code                   ?
_journal_coeditor_notes
; ?
;
_journal_techeditor_code                 ?
_journal_paper_category                  ?
_journal_techeditor_notes
; ?
;
_journal_coden_ASTM                      ?
_journal_name_full                       'Acta Crystallographica Section C'
_journal_year                            ?
_journal_volume                          ?
_journal_issue                           ?
_journal_page_first                      ?
_journal_page_last                       ?
_journal_suppl_publ_number               ?
_journal_suppl_publ_pages                ?

#=======================================================================

# 2. SUBMISSION DETAILS

_publ_contact_author_name                ?
_publ_contact_author_address
; ?
;
_publ_contact_author_email               ?
_publ_contact_author_fax                 ?
_publ_contact_author_phone               ?

_publ_requested_journal                  'Acta Crystallographica Section C'
_publ_requested_category                 ?

_publ_contact_letter
; ?
;

#=======================================================================

# 3. TITLE AND AUTHOR LIST

_publ_section_title
; ?
;
_publ_section_title_footnote
; ?
;
loop_
 _publ_author_name
 _publ_author_footnote
 _publ_author_address
 ?       # name
; ?      # footnote
;
; ?      # address
;

#=======================================================================

# 4. TEXT

_publ_section_synopsis
; ?
;
_publ_section_abstract
; ?
;
_publ_section_comment
; ?
;
_publ_section_introduction
; ?
;
_publ_section_experimental
; ?
;
_publ_section_exptl_prep
; ?
;
_publ_section_exptl_refinement
; ?
;
_publ_section_exptl_solution
; ?
;
_publ_section_discussion
; ?
;
_publ_section_acknowledgements
; ?
;
_publ_section_references
;
Petricek, V., Dusek, M. & Palatinus L. (2006). Jana2006.
Structure Determination Software Programs.
Institute of Physics, Praha, Czech Republic.

Palatinus L. & Chapuis G. (2007). J. Appl. Cryst. 40, 786-790.

# enable this reference if Diamond ver. 2 was used for visualization
#Brandenburg, K. (1999). DIAMOND. Version. 2.1c.
#Crystal Impact GbR, Bonn, Germany.

# enable this reference if Diamond ver. 3 was used for visualization
#Brandenburg, K. & Putz, H. (2005). DIAMOND Version 3.
#Crystal Impact GbR, Postfach 1251, D-53002 Bonn, Germany.

# enable this reference if SIR97 was used for solving of the structure
#Altomare, A., Burla, M. C., Camalli, M., Cascarano, G., Giacovazzo, C.,
#Guagliardi, A., Moliterni, A. G. G., Polidori, G., Spagna, R. (1997).
#SIR97. A Package for Crystal Structure Solution by Direct Methods
#and Refinement, Bari, Rome, Italy.

# use this reference if SIR2002 was used for solving of the structure
#Burla, M.C., Camalli, M., Carrozzini, B., Cascarano, G., Giacovazzo, C.,
#Polidori, G., Spagna, R.
#SIR2002: the program, J. Appl. Cryst, (2003). 36, 1103

# enable this reference if bond valences were calculated
#Brown, I. D. (1996). J. Appl. Cryst. 29, 479-480.

# enable this reference if Xshape wase used for crystal shape refinement
#Stoe & Cie (1998). X-SHAPE. Stoe & Cie, Darmstadt, Germany.


# enable this reference if Flack coefficient was refined
#Flack, H. D. (1983). Acta Cryst. A39, 876-881.
;
_publ_section_figure_captions
; ?
;
_publ_section_table_legends
; ?
;

#=======================================================================
data_I
#=======================================================================

# 5. CHEMICAL DATA

_chemical_name_systematic
; ?
;
_chemical_name_common                    ?
_chemical_formula_moiety                 ?
_chemical_formula_structural             ?
_chemical_formula_analytical             ?
_chemical_formula_iupac                  ?
_chemical_formula_sum                    'Cs1 I3 Pb1'
_chemical_formula_weight                 720.8
_chemical_melting_point                  ?
_chemical_compound_source                ?
_chemical_absolute_configuration         .

#=======================================================================

# 6. POWDER SPECIMEN AND CRYSTAL DATA

_symmetry_cell_setting                   cubic
_symmetry_space_group_name_H-M           'P m -3 m'
_symmetry_space_group_name_Hall          '-P 4;2;3'
_symmetry_Int_Tables_number              221

loop_
 _symmetry_equiv_pos_site_id
 _symmetry_equiv_pos_as_xyz
 1   x,y,z
 2   -x,-y,z
 3   -x,y,-z
 4   x,-y,-z
 5   z,x,y
 6   z,-x,-y
 7   -z,-x,y
 8   -z,x,-y
 9   y,z,x
 10  -y,z,-x
 11  y,-z,-x
 12  -y,-z,x
 13  y,x,-z
 14  -y,-x,-z
 15  y,-x,z
 16  -y,x,z
 17  x,z,-y
 18  -x,z,y
 19  -x,-z,-y
 20  x,-z,y
 21  z,y,-x
 22  z,-y,x
 23  -z,y,x
 24  -z,-y,-x
 25  -x,-y,-z
 26  x,y,-z
 27  x,-y,z
 28  -x,y,z
 29  -z,-x,-y
 30  -z,x,y
 31  z,x,-y
 32  z,-x,y
 33  -y,-z,-x
 34  y,-z,x
 35  -y,z,x
 36  y,z,-x
 37  -y,-x,z
 38  y,x,z
 39  -y,x,-z
 40  y,-x,-z
 41  -x,-z,y
 42  x,-z,-y
 43  x,z,y
 44  -x,z,-y
 45  -z,-y,x
 46  -z,y,-x
 47  z,-y,-x
 48  z,y,x

_cell_length_a                           6.29658(2)
_cell_length_b                           6.29658(2)
_cell_length_c                           6.29658(2)
_cell_angle_alpha                        90
_cell_angle_beta                         90
_cell_angle_gamma                        90
_cell_volume                             249.6403(15)

_cell_formula_units_Z                    1
_cell_measurement_temperature            640
_cell_special_details
; ?
;

_exptl_crystal_density_diffrn            4.7931
_exptl_crystal_density_meas              ?
_exptl_crystal_density_method            ?
_exptl_crystal_F_000                     296

_pd_spec_size_axial                      ?
_pd_spec_size_equat                      ?
_pd_spec_size_thick                      ?
_pd_spec_mounting                        ?
_pd_spec_mount_mode                      ?
_pd_spec_shape                           ?
_pd_char_particle_morphology             ?
_pd_char_colour                          ?
_pd_prep_cool_rate                       ?
_pd_prep_pressure                        ?
_pd_prep_temperature                     ?

_exptl_absorpt_coefficient_mu            7.089
_exptl_absorpt_correction_type           ?
_exptl_absorpt_process_details           ?
_exptl_absorpt_correction_T_min          ?
_exptl_absorpt_correction_T_max          ?

#=======================================================================

# 7. EXPERIMENTAL DATA

_exptl_special_details                   ?
_pd_instr_location
; ?
;
_pd_calibration_special_details
; ?
;

_diffrn_ambient_temperature              640
_diffrn_source                           ?
_diffrn_source_target                    ?
_diffrn_source_type                      ?
_diffrn_radiation_type                   ?
_diffrn_radiation_wavelength             0.41391
_diffrn_radiation_monochromator          ?
_diffrn_measurement_device               ?
_diffrn_measurement_device_type          ?
_diffrn_detector                         ?
_diffrn_detector_type                    ?

_pd_meas_scan_method                     ?
_pd_meas_special_details
; ?
;
_pd_meas_number_of_points                12748
_pd_meas_2theta_range_min                0.500
_pd_meas_2theta_range_max                25.994
_pd_meas_2theta_range_inc                0.002

_diffrn_radiation_probe                  X-ray

#=======================================================================

# 8. REFINEMENT DATA

_pd_proc_ls_special_details
; ?
;
_pd_proc_ls_profile_function             'Pseudo-Voigt'
_pd_proc_ls_background_function          '20 Legendre polynoms'
_pd_proc_ls_pref_orient_corr             none
_pd_proc_ls_prof_R_factor                0.0839
_pd_proc_ls_prof_wR_factor               0.1104
_pd_proc_ls_prof_wR_expected             0.0965

_refine_special_details
; ?
;

_refine_ls_R_factor_gt                   0.0406
_refine_ls_wR_factor_gt                  0.0351
_refine_ls_R_factor_all                  0.0432
_refine_ls_wR_factor_all                 0.0353
_refine_ls_goodness_of_fit_all           1.14
_refine_ls_restrained_S_gt               ?
_refine_ls_restrained_S_all              ?
_refine_ls_number_parameters             31
_refine_ls_number_restraints             0
_refine_ls_number_constraints            0
_refine_ls_weighting_scheme              sigma
_refine_ls_weighting_details             ?
_refine_ls_hydrogen_treatment            ?
_refine_ls_shift/su_max                  0.8231
_refine_ls_shift/su_mean                 0.0868
_refine_diff_density_max                 ?
_refine_diff_density_min                 ?
_refine_ls_extinction_method             ?
_refine_ls_extinction_coef               ?

_pd_proc_2theta_range_min                2.002
_pd_proc_2theta_range_max                24.998
_pd_proc_2theta_range_inc                0.002
_pd_proc_wavelength                      ?

_pd_block_diffractogram_id               ?

loop_
_pd_proc_info_excluded_regions
 'from 0.5 to 2.000'
 'from 25 to 26.020'
_pd_proc_info_data_reduction             ?

loop_
 _atom_type_symbol
 _atom_type_scat_dispersion_real
 _atom_type_scat_dispersion_imag
 _atom_type_scat_source
 Cs -1.4654  0.8159
 'International Tables Vol C tables 4.2.6.8 and 6.1.1.1'
 I  -1.8899  0.6972
 'International Tables Vol C tables 4.2.6.8 and 6.1.1.1'
 Pb -0.6121  4.2687
 'International Tables Vol C tables 4.2.6.8 and 6.1.1.1'

_computing_data_collection               ?
_computing_cell_refinement               ?
_computing_data_reduction                ?
_computing_structure_solution            ?
_computing_structure_refinement          ?
_computing_molecular_graphics            ?
_computing_publication_material          ?

#=======================================================================

# 9. ATOMIC COORDINATES AND DISPLACEMENT PARAMETERS

loop_
 _atom_site_label
 _atom_site_type_symbol
 _atom_site_fract_x
 _atom_site_fract_y
 _atom_site_fract_z
 _atom_site_adp_type
 _atom_site_U_iso_or_equiv
 _atom_site_symmetry_multiplicity
 _atom_site_occupancy
 _atom_site_calc_flag
 _atom_site_refinement_flags
 _atom_site_disorder_assembly
 _atom_site_disorder_group
  Pb Pb 0 0 0 Uani 0.0708(4) 1 1 d . . .
  Cs Cs 0.5 0.5 0.5 Uani 0.2164(12) 1 1 d . . .
  I I 0 0 -0.5 Uani 0.2277(13) 3 1 d . . .

loop_
 _atom_site_aniso_label
 _atom_site_aniso_type_symbol
 _atom_site_aniso_U_11
 _atom_site_aniso_U_22
 _atom_site_aniso_U_33
 _atom_site_aniso_U_12
 _atom_site_aniso_U_13
 _atom_site_aniso_U_23
 Pb Pb 0.0708(7) 0.0708(7) 0.0708(7) 0 0 0
 Cs Cs 0.216(2) 0.216(2) 0.216(2) 0 0 0
 I I 0.315(3) 0.315(3) 0.0528(17) 0 0 0

loop_
 _jana_atom_site_ADP_C_label
 _jana_atom_site_ADP_C_type_symbol
 _jana_atom_site_ADP_C_111
 _jana_atom_site_ADP_C_112
 _jana_atom_site_ADP_C_113
 _jana_atom_site_ADP_C_122
 _jana_atom_site_ADP_C_123
 _jana_atom_site_ADP_C_133
 _jana_atom_site_ADP_C_222
 _jana_atom_site_ADP_C_223
 _jana_atom_site_ADP_C_233
 _jana_atom_site_ADP_C_333
 ? ? ? ? ? ? ? ? ? ? ? ?

loop_
 _jana_atom_site_ADP_D_label
 _jana_atom_site_ADP_D_type_symbol
 _jana_atom_site_ADP_D_1111
 _jana_atom_site_ADP_D_1112
 _jana_atom_site_ADP_D_1113
 _jana_atom_site_ADP_D_1122
 _jana_atom_site_ADP_D_1123
 _jana_atom_site_ADP_D_1133
 _jana_atom_site_ADP_D_1222
 _jana_atom_site_ADP_D_1223
 _jana_atom_site_ADP_D_1233
 _jana_atom_site_ADP_D_1333
 _jana_atom_site_ADP_D_2222
 _jana_atom_site_ADP_D_2223
 _jana_atom_site_ADP_D_2233
 _jana_atom_site_ADP_D_2333
 _jana_atom_site_ADP_D_3333
 ? ? ? ? ? ? ? ? ? ? ? ? ? ? ? ? ?

loop_
 _jana_atom_site_ADP_E_label
 _jana_atom_site_ADP_E_type_symbol
 _jana_atom_site_ADP_E_11111
 _jana_atom_site_ADP_E_11112
 _jana_atom_site_ADP_E_11113
 _jana_atom_site_ADP_E_11122
 _jana_atom_site_ADP_E_11123
 _jana_atom_site_ADP_E_11133
 _jana_atom_site_ADP_E_11222
 _jana_atom_site_ADP_E_11223
 _jana_atom_site_ADP_E_11233
 _jana_atom_site_ADP_E_11333
 _jana_atom_site_ADP_E_12222
 _jana_atom_site_ADP_E_12223
 _jana_atom_site_ADP_E_12233
 _jana_atom_site_ADP_E_12333
 _jana_atom_site_ADP_E_13333
 _jana_atom_site_ADP_E_22222
 _jana_atom_site_ADP_E_22223
 _jana_atom_site_ADP_E_22233
 _jana_atom_site_ADP_E_22333
 _jana_atom_site_ADP_E_23333
 _jana_atom_site_ADP_E_33333
 ? ? ? ? ? ? ? ? ? ? ? ? ? ? ? ? ? ? ? ? ? ? ?

loop_
 _jana_atom_site_ADP_F_label
 _jana_atom_site_ADP_F_type_symbol
 _jana_atom_site_ADP_F_111111
 _jana_atom_site_ADP_F_111112
 _jana_atom_site_ADP_F_111113
 _jana_atom_site_ADP_F_111122
 _jana_atom_site_ADP_F_111123
 _jana_atom_site_ADP_F_111133
 _jana_atom_site_ADP_F_111222
 _jana_atom_site_ADP_F_111223
 _jana_atom_site_ADP_F_111233
 _jana_atom_site_ADP_F_111333
 _jana_atom_site_ADP_F_112222
 _jana_atom_site_ADP_F_112223
 _jana_atom_site_ADP_F_112233
 _jana_atom_site_ADP_F_112333
 _jana_atom_site_ADP_F_113333
 _jana_atom_site_ADP_F_122222
 _jana_atom_site_ADP_F_122223
 _jana_atom_site_ADP_F_122233
 _jana_atom_site_ADP_F_122333
 _jana_atom_site_ADP_F_123333
 _jana_atom_site_ADP_F_133333
 _jana_atom_site_ADP_F_222222
 _jana_atom_site_ADP_F_222223
 _jana_atom_site_ADP_F_222233
 _jana_atom_site_ADP_F_222333
 _jana_atom_site_ADP_F_223333
 _jana_atom_site_ADP_F_233333
 _jana_atom_site_ADP_F_333333
 ? ? ? ? ? ? ? ? ? ? ? ? ? ? ? ? ? ? ? ? ? ? ? ? ? ? ? ? ? ?


#=======================================================================

# 10. MOLECULAR GEOMETRY


loop_
 _geom_bond_atom_site_label_1
 _geom_bond_atom_site_label_2
 _geom_bond_site_symmetry_1
 _geom_bond_site_symmetry_2
 _geom_bond_distance
 _geom_bond_publ_flag
 ? ? ? ? ? ?

loop_
 _geom_angle_atom_site_label_1
 _geom_angle_atom_site_label_2
 _geom_angle_atom_site_label_3
 _geom_angle_site_symmetry_1
 _geom_angle_site_symmetry_2
 _geom_angle_site_symmetry_3
 _geom_angle
 _geom_angle_publ_flag
 ? ? ? ? ? ? ? ?

loop_
 _geom_torsion_atom_site_label_1
 _geom_torsion_atom_site_label_2
 _geom_torsion_atom_site_label_3
 _geom_torsion_atom_site_label_4
 _geom_torsion_site_symmetry_1
 _geom_torsion_site_symmetry_2
 _geom_torsion_site_symmetry_3
 _geom_torsion_site_symmetry_4
 _geom_torsion
 _geom_torsion_publ_flag
 ? ? ? ? ? ? ? ? ? ?

loop_
 _geom_hbond_atom_site_label_D
 _geom_hbond_atom_site_label_H
 _geom_hbond_atom_site_label_A
 _geom_hbond_site_symmetry_D
 _geom_hbond_site_symmetry_H
 _geom_hbond_site_symmetry_A
 _geom_hbond_distance_DH
 _geom_hbond_distance_HA
 _geom_hbond_distance_DA
 _geom_hbond_angle_DHA
 _geom_hbond_publ_flag
 ? ? ? ? ? ? ? ? ? ? ?


#=======================================================================

# 11. POWDER PROFILE

loop_
 _pd_proc_point_id
 _pd_proc_2theta_corrected
 _pd_proc_intensity_net
 _pd_calc_intensity_net
 _pd_proc_ls_weight
         1         2.0030          57.82          52.28           7.55
         2         2.0050          50.69          52.31           7.07
         3         2.0070          53.28          52.33           7.26
         4         2.0090          55.94          52.36           7.43
         5         2.0110          60.31          52.38           7.72
         6         2.0130          56.82          52.41           7.49
         7         2.0150          50.83          52.43           7.09
         8         2.0170          51.41          52.45           7.12
         9         2.0190          55.88          52.47           7.42
        10         2.0210          55.46          52.49           7.39
        11         2.0230          50.87          52.51           7.07
        12         2.0250          46.67          52.53           6.74
        13         2.0270          64.37          52.55           7.96
        14         2.0290          65.81          52.56           8.06
        15         2.0310          56.50          52.58           7.46
        16         2.0330          58.22          52.59           7.57
        17         2.0350          54.37          52.61           7.32
        18         2.0370          50.63          52.62           7.07
        19         2.0390          49.13          52.63           6.96
        20         2.0410          54.78          52.64           7.34
        21         2.0430          45.30          52.65           6.68
        22         2.0450          41.42          52.66           6.38
        23         2.0470          59.35          52.67           7.62
        24         2.0490          60.00          52.68           7.69
        25         2.0510          58.88          52.69           7.62
        26         2.0530          56.04          52.69           7.44
        27         2.0550          68.46          52.70           8.21
        28         2.0570          57.10          52.71           7.49
        29         2.0590          56.30          52.71           7.44
        30         2.0610          58.15          52.72           7.57
        31         2.0630          55.57          52.72           7.40
        32         2.0650          47.03          52.72           6.79
        33         2.0670          36.44          52.72           5.99
        34         2.0690          52.49          52.73           7.17
        35         2.0710          66.73          52.73           8.11
        36         2.0730          48.83          52.73           6.93
        37         2.0750          44.86          52.73           6.65
        38         2.0770          47.03          52.73           6.82
        39         2.0790          59.36          52.73           7.62
        40         2.0810          56.66          52.73           7.47
        41         2.0830          48.42          52.73           6.92
        42         2.0850          48.39          52.72           6.91
        43         2.0870          45.98          52.72           6.74
        44         2.0890          49.83          52.72           7.00
        45         2.0910          61.59          52.72           7.79
        46         2.0930          57.57          52.71           7.53
        47         2.0950          55.69          52.71           7.42
        48         2.0970          53.38          52.70           7.27
        49         2.0990          54.13          52.70           7.31
        50         2.1010          58.48          52.69           7.59
        51         2.1030          51.90          52.69           7.16
        52         2.1050          54.17          52.68           7.32
        53         2.1070          52.66          52.68           7.22
        54         2.1090          52.04          52.67           7.17
        55         2.1110          51.52          52.66           7.14
        56         2.1130          56.69          52.66           7.47
        57         2.1150          48.27          52.65           6.89
        58         2.1170          46.17          52.64           6.76
        59         2.1190          52.16          52.63           7.15
        60         2.1210          42.51          52.62           6.44
        61         2.1230          55.57          52.62           7.40
        62         2.1250          52.27          52.61           7.15
        63         2.1270          47.77          52.60           6.85
        64         2.1290          50.63          52.59           7.07
        65         2.1310          49.93          52.58           7.02
        66         2.1330          58.40          52.57           7.58
        67         2.1350          50.63          52.56           7.06
        68         2.1370          45.47          52.55           6.69
        69         2.1390          50.53          52.54           7.06
        70         2.1410          52.77          52.53           7.22
        71         2.1430          53.99          52.52           7.30
        72         2.1450          63.89          52.51           7.93
        73         2.1470          63.19          52.50           7.89
        74         2.1490          54.67          52.49           7.35
        75         2.1510          50.57          52.48           7.07
        76         2.1530          47.94          52.47           6.86
        77         2.1550          40.42          52.46           6.31
        78         2.1570          42.13          52.45           6.42
        79         2.1590          50.11          52.44           7.02
        80         2.1610          50.16          52.43           7.02
        81         2.1630          57.53          52.42           7.53
        82         2.1650          46.79          52.41           6.79
        83         2.1670          48.12          52.40           6.89
        84         2.1690          47.09          52.39           6.82
        85         2.1710          55.16          52.37           7.38
        86         2.1730          50.82          52.36           7.09
        87         2.1750          47.68          52.35           6.87
        88         2.1770          57.83          52.34           7.53
        89         2.1790          52.84          52.33           7.21
        90         2.1810          47.43          52.32           6.84
        91         2.1830          49.59          52.31           6.99
        92         2.1850          48.79          52.30           6.94
        93         2.1870          39.26          52.29           6.22
        94         2.1890          44.92          52.28           6.65
        95         2.1910          64.16          52.27           7.95
        96         2.1930          57.91          52.25           7.56
        97         2.1950          59.96          52.24           7.69
        98         2.1970          56.59          52.23           7.47
        99         2.1990          55.12          52.22           7.38
       100         2.2010          52.61          52.21           7.20
       101         2.2030          63.36          52.20           7.90
       102         2.2050          53.44          52.19           7.26
       103         2.2070          55.48          52.18           7.40
       104         2.2090          60.20          52.17           7.70
       105         2.2110          52.86          52.16           7.20
       106         2.2130          48.94          52.15           6.92
       107         2.2150          57.52          52.14           7.53
       108         2.2170          63.80          52.13           7.94
       109         2.2190          55.36          52.12           7.40
       110         2.2210          52.59          52.11           7.21
       111         2.2230          58.01          52.10           7.57
       112         2.2250          59.53          52.09           7.67
       113         2.2270          52.60          52.09           7.20
       114         2.2290          44.83          52.08           6.66
       115         2.2310          45.65          52.07           6.72
       116         2.2330          47.19          52.06           6.83
       117         2.2350          56.91          52.05           7.49
       118         2.2370          46.86          52.04           6.79
       119         2.2390          41.12          52.03           6.37
       120         2.2410          44.09          52.03           6.60
       121         2.2430          44.12          52.02           6.60
       122         2.2450          44.64          52.01           6.62
       123         2.2470          40.71          52.00           6.27
       124         2.2490          49.22          52.00           6.95
       125         2.2510          50.05          51.99           6.99
       126         2.2530          57.07          51.98           7.50
       127         2.2550          50.00          51.97           7.02
       128         2.2570          45.44          51.97           6.70
       129         2.2590          60.52          51.96           7.70
       130         2.2610          60.51          51.96           7.73
       131         2.2630          53.39          51.95           7.25
       132         2.2650          37.22          51.94           6.04
       133         2.2670          48.62          51.94           6.88
       134         2.2690          54.39          51.93           7.31
       135         2.2710          58.94          51.93           7.63
       136         2.2730          54.92          51.92           7.36
       137         2.2750          48.24          51.92           6.90
       138         2.2770          56.35          51.91           7.45
       139         2.2790          46.71          51.91           6.77
       140         2.2810          48.18          51.91           6.89
       141         2.2830          64.51          51.90           7.98
       142         2.2850          58.37          51.90           7.58
       143         2.2870          55.38          51.90           7.39
       144         2.2890          50.78          51.89           7.07
       145         2.2910          47.34          51.89           6.83
       146         2.2930          49.14          51.89           6.96
       147         2.2950          45.60          51.89           6.70
       148         2.2970          53.63          51.88           7.27
       149         2.2990          49.64          51.88           7.00
       150         2.3010          53.66          51.88           7.28
       151         2.3030          52.02          51.88           7.16
       152         2.3050          52.89          51.88           7.22
       153         2.3070          55.45          51.88           7.40
       154         2.3090          48.46          51.88           6.92
       155         2.3110          52.06          51.88           7.16
       156         2.3130          58.80          51.88           7.61
       157         2.3150          53.73          51.88           7.28
       158         2.3170          57.30          51.88           7.51
       159         2.3190          63.30          51.88           7.89
       160         2.3210          56.92          51.88           7.47
       161         2.3230          56.33          51.88           7.41
       162         2.3250          53.48          51.88           7.20
       163         2.3270          62.30          51.88           7.85
       164         2.3290          57.50          51.88           7.52
       165         2.3310          46.92          51.89           6.80
       166         2.3330          48.09          51.89           6.88
       167         2.3350          54.30          51.89           7.31
       168         2.3370          59.02          51.89           7.63
       169         2.3390          42.80          51.90           6.49
       170         2.3410          50.41          51.90           7.04
       171         2.3430          48.48          51.90           6.92
       172         2.3450          50.77          51.91           7.09
       173         2.3470          51.88          51.91           7.15
       174         2.3490          45.66          51.92           6.71
       175         2.3510          50.83          51.92           7.09
       176         2.3530          53.15          51.93           7.24
       177         2.3550          57.81          51.93           7.52
       178         2.3570          64.71          51.94           7.99
       179         2.3590          61.25          51.94           7.77
       180         2.3610          55.35          51.95           7.39
       181         2.3630          58.86          51.96           7.62
       182         2.3650          58.14          51.96           7.58
       183         2.3670          52.99          51.97           7.23
       184         2.3690          48.60          51.98           6.93
       185         2.3710          59.66          51.99           7.66
       186         2.3730          62.19          51.99           7.82
       187         2.3750          44.23          52.00           6.57
       188         2.3770          46.18          52.01           6.76
       189         2.3790          60.08          52.02           7.69
       190         2.3810          64.72          52.03           7.99
       191         2.3830          58.33          52.04           7.59
       192         2.3850          52.99          52.05           7.23
       193         2.3870          52.57          52.06           7.19
       194         2.3890          60.97          52.07           7.76
       195         2.3910          54.57          52.08           7.35
       196         2.3930          50.70          52.09           7.07
       197         2.3950          49.38          52.10           6.94
       198         2.3970          55.06          52.11           7.35
       199         2.3990          43.59          52.12           6.55
       200         2.4010          41.99          52.13           6.43
       201         2.4030          46.68          52.15           6.76
       202         2.4050          54.74          52.16           7.35
       203         2.4070          46.45          52.17           6.76
       204         2.4090          40.99          52.18           6.35
       205         2.4110          53.41          52.20           7.22
       206         2.4130          56.16          52.21           7.44
       207         2.4150          56.94          52.22           7.48
       208         2.4170          52.66          52.24           7.20
       209         2.4190          53.30          52.25           7.24
       210         2.4210          62.25          52.26           7.84
       211         2.4230          58.61          52.28           7.60
       212         2.4250          52.57          52.29           7.19
       213         2.4270          50.40          52.31           7.05
       214         2.4290          51.69          52.32           7.13
       215         2.4310          46.84          52.34           6.77
       216         2.4330          37.54          52.35           6.04
       217         2.4350          50.14          52.37           7.03
       218         2.4370          63.54          52.39           7.89
       219         2.4390          55.38          52.40           7.37
       220         2.4410          59.62          52.42           7.67
       221         2.4430          57.65          52.44           7.53
       222         2.4450          48.87          52.45           6.94
       223         2.4470          57.32          52.47           7.51
       224         2.4490          58.81          52.49           7.60
       225         2.4510          49.85          52.51           7.01
       226         2.4530          53.91          52.53           7.27
       227         2.4550          54.32          52.55           7.28
       228         2.4570          59.24          52.56           7.64
       229         2.4590          57.08          52.58           7.50
       230         2.4610          62.28          52.60           7.84
       231         2.4630          56.73          52.62           7.47
       232         2.4650          50.20          52.64           7.03
       233         2.4670          50.21          52.66           7.03
       234         2.4690          49.66          52.68           6.97
       235         2.4710          57.03          52.70           7.50
       236         2.4730          50.89          52.72           7.08
       237         2.4750          46.18          52.74           6.75
       238         2.4770          50.55          52.76           7.04
       239         2.4790          58.53          52.79           7.59
       240         2.4810          55.88          52.81           7.40
       241         2.4830          56.00          52.83           7.42
       242         2.4850          54.40          52.85           7.31
       243         2.4870          51.08          52.87           7.08
       244         2.4890          45.24          52.90           6.66
       245         2.4910          58.35          52.92           7.57
       246         2.4930          66.51          52.94           8.08
       247         2.4950          46.44          52.96           6.71
       248         2.4970          53.29          52.99           7.15
       249         2.4990          61.49          53.01           7.76
       250         2.5010          48.86          53.03           6.94
       251         2.5030          48.08          53.06           6.87
       252         2.5050          56.36          53.08           7.41
       253         2.5070          44.44          53.11           6.60
       254         2.5090          50.85          53.13           7.02
       255         2.5110          58.80          53.16           7.61
       256         2.5130          56.83          53.18           7.48
       257         2.5150          63.49          53.21           7.92
       258         2.5170          58.29          53.23           7.58
       259         2.5190          58.72          53.26           7.60
       260         2.5210          56.80          53.28           7.48
       261         2.5230          51.30          53.31           7.11
       262         2.5250          55.27          53.33           7.38
       263         2.5270          57.73          53.36           7.55
       264         2.5290          55.17          53.39           7.38
       265         2.5310          58.48          53.41           7.59
       266         2.5330          61.43          53.44           7.76
       267         2.5350          55.02          53.47           7.35
       268         2.5370          54.33          53.49           7.32
       269         2.5390          60.03          53.52           7.69
       270         2.5410          67.33          53.55           8.14
       271         2.5430          57.46          53.58           7.51
       272         2.5450          51.30          53.61           7.11
       273         2.5470          56.98          53.63           7.49
       274         2.5490          58.90          53.66           7.60
       275         2.5510          55.59          53.69           7.39
       276         2.5530          51.77          53.72           7.13
       277         2.5550          55.33          53.75           7.34
       278         2.5570          43.28          53.78           6.50
       279         2.5590          49.64          53.80           6.99
       280         2.5610          54.29          53.83           7.28
       281         2.5630          39.26          53.86           6.16
       282         2.5650          56.92          53.89           7.48
       283         2.5670          47.82          53.92           6.86
       284         2.5690          54.88          53.95           7.33
       285         2.5710          59.27          53.98           7.63
       286         2.5730          66.10          54.01           8.06
       287         2.5750          51.42          54.04           7.11
       288         2.5770          55.00          54.07           7.33
       289         2.5790          56.75          54.10           7.46
       290         2.5810          53.88          54.13           7.26
       291         2.5830          54.72          54.16           7.33
       292         2.5850          51.26          54.20           7.10
       293         2.5870          55.55          54.23           7.39
       294         2.5890          60.25          54.26           7.70
       295         2.5910          53.33          54.29           7.24
       296         2.5930          52.79          54.32           7.21
       297         2.5950          54.13          54.35           7.31
       298         2.5970          52.98          54.38           7.23
       299         2.5990          59.98          54.42           7.69
       300         2.6010          58.00          54.45           7.56
       301         2.6030          52.41          54.48           7.18
       302         2.6050          48.43          54.51           6.90
       303         2.6070          56.63          54.54           7.46
       304         2.6090          50.86          54.58           7.07
       305         2.6110          54.52          54.61           7.30
       306         2.6130          62.14          54.64           7.80
       307         2.6150          60.07          54.67           7.67
       308         2.6170          58.70          54.71           7.60
       309         2.6190          55.90          54.74           7.39
       310         2.6210          40.43          54.77           6.25
       311         2.6230          49.15          54.81           6.97
       312         2.6250          50.42          54.84           7.06
       313         2.6270          45.17          54.87           6.66
       314         2.6290          41.53          54.91           6.39
       315         2.6310          50.34          54.94           7.03
       316         2.6330          65.48          54.97           8.00
       317         2.6350          55.93          55.01           7.39
       318         2.6370          58.76          55.04           7.61
       319         2.6390          50.70          55.08           7.06
       320         2.6410          49.48          55.11           6.98
       321         2.6430          52.59          55.14           7.20
       322         2.6450          57.00          55.18           7.48
       323         2.6470          52.93          55.21           7.21
       324         2.6490          62.02          55.25           7.79
       325         2.6510          63.90          55.28           7.93
       326         2.6530          64.03          55.32           7.96
       327         2.6550          57.32          55.35           7.48
       328         2.6570          52.70          55.38           7.17
       329         2.6590          50.75          55.42           7.05
       330         2.6610          44.91          55.45           6.65
       331         2.6630          57.65          55.49           7.53
       332         2.6650          53.67          55.52           7.27
       333         2.6670          58.29          55.56           7.57
       334         2.6690          60.98          55.59           7.73
       335         2.6710          55.41          55.63           7.37
       336         2.6730          61.74          55.66           7.79
       337         2.6750          55.93          55.70           7.39
       338         2.6770          66.65          55.73           8.12
       339         2.6790          69.11          55.77           8.25
       340         2.6810          56.35          55.80           7.45
       341         2.6830          44.94          55.84           6.65
       342         2.6850          42.51          55.88           6.48
       343         2.6870          57.45          55.91           7.51
       344         2.6890          58.64          55.95           7.60
       345         2.6910          59.09          55.98           7.63
       346         2.6930          60.33          56.02           7.70
       347         2.6950          69.86          56.05           8.29
       348         2.6970          69.15          56.09           8.25
       349         2.6990          61.52          56.12           7.77
       350         2.7010          56.75          56.16           7.47
       351         2.7030          47.91          56.20           6.86
       352         2.7050          56.36          56.23           7.43
       353         2.7070          48.91          56.27           6.93
       354         2.7090          53.23          56.30           7.24
       355         2.7110          66.40          56.34           8.08
       356         2.7130          63.68          56.38           7.91
       357         2.7150          47.94          56.41           6.86
       358         2.7170          53.43          56.45           7.23
       359         2.7190          59.99          56.48           7.67
       360         2.7210          65.40          56.52           8.02
       361         2.7230          51.53          56.56           7.11
       362         2.7250          50.58          56.59           7.03
       363         2.7270          63.05          56.63           7.87
       364         2.7290          52.73          56.66           7.18
       365         2.7310          60.38          56.70           7.70
       366         2.7330          50.93          56.74           7.08
       367         2.7350          53.56          56.77           7.22
       368         2.7370          43.49          56.81           6.52
       369         2.7390          52.67          56.84           7.19
       370         2.7410          66.05          56.88           8.06
       371         2.7430          54.03          56.92           7.28
       372         2.7450          44.80          56.95           6.63
       373         2.7470          61.85          56.99           7.80
       374         2.7490          63.29          57.03           7.88
       375         2.7510          52.54          57.06           7.19
       376         2.7530          51.46          57.10           7.11
       377         2.7550          55.81          57.13           7.41
       378         2.7570          49.98          57.17           7.00
       379         2.7590          54.17          57.21           7.27
       380         2.7610          64.28          57.24           7.95
       381         2.7630          56.44          57.28           7.45
       382         2.7650          52.41          57.31           7.18
       383         2.7670          42.26          57.35           6.45
       384         2.7690          58.29          57.39           7.55
       385         2.7710          58.95          57.42           7.61
       386         2.7730          49.73          57.46           6.99
       387         2.7750          51.13          57.49           7.11
       388         2.7770          64.13          57.53           7.93
       389         2.7790          70.85          57.57           8.33
       390         2.7810          52.79          57.60           7.20
       391         2.7830          46.57          57.64           6.75
       392         2.7850          56.75          57.67           7.47
       393         2.7870          70.64          57.71           8.34
       394         2.7890          66.22          57.75           8.04
       395         2.7910          55.65          57.78           7.37
       396         2.7930          58.53          57.82           7.57
       397         2.7950          50.28          57.85           7.01
       398         2.7970          67.30          57.89           8.12
       399         2.7990          67.89          57.92           8.16
       400         2.8010          58.09          57.96           7.55
       401         2.8030          55.84          57.99           7.40
       402         2.8050          61.64          58.03           7.78
       403         2.8070          76.37          58.07           8.66
       404         2.8090          60.96          58.10           7.74
       405         2.8110          59.01          58.14           7.62
       406         2.8130          62.30          58.17           7.82
       407         2.8150          67.89          58.21           8.17
       408         2.8170          59.88          58.24           7.67
       409         2.8190          57.40          58.28           7.51
       410         2.8210          61.09          58.31           7.74
       411         2.8230          64.02          58.35           7.92
       412         2.8250          54.93          58.38           7.32
       413         2.8270          66.49          58.42           8.08
       414         2.8290          55.06          58.45           7.34
       415         2.8310          42.48          58.49           6.44
       416         2.8330          55.48          58.52           7.37
       417         2.8350          47.24          58.56           6.81
       418         2.8370          51.08          58.59           7.09
       419         2.8390          54.32          58.63           7.30
       420         2.8410          54.42          58.66           7.31
       421         2.8430          55.34          58.70           7.37
       422         2.8450          59.06          58.73           7.61
       423         2.8470          60.17          58.77           7.68
       424         2.8490          53.77          58.80           7.26
       425         2.8510          58.42          58.84           7.57
       426         2.8530          58.84          58.87           7.60
       427         2.8550          62.26          58.90           7.82
       428         2.8570          64.51          58.94           7.96
       429         2.8590          75.19          58.97           8.59
       430         2.8610          65.35          59.01           8.00
       431         2.8630          58.76          59.04           7.59
       432         2.8650          63.94          59.07           7.89
       433         2.8670          73.48          59.11           8.49
       434         2.8690          55.54          59.14           7.38
       435         2.8710          63.32          59.18           7.86
       436         2.8730          58.23          59.21           7.55
       437         2.8750          62.84          59.24           7.85
       438         2.8770          64.16          59.28           7.92
       439         2.8790          56.91          59.31           7.43
       440         2.8810          65.31          59.34           8.02
       441         2.8830          58.17          59.38           7.57
       442         2.8850          70.40          59.41           8.29
       443         2.8870          73.54          59.44           8.50
       444         2.8890          69.24          59.48           8.23
       445         2.8910          57.12          59.51           7.48
       446         2.8930          55.98          59.54           7.42
       447         2.8950          66.93          59.57           8.10
       448         2.8970          74.75          59.61           8.57
       449         2.8990          55.49          59.64           7.36
       450         2.9010          63.14          59.67           7.85
       451         2.9030          55.86          59.71           7.39
       452         2.9050          66.34          59.74           8.08
       453         2.9070          71.62          59.77           8.38
       454         2.9090          61.23          59.80           7.75
       455         2.9110          77.14          59.83           8.70
       456         2.9130          63.26          59.87           7.87
       457         2.9150          57.12          59.90           7.49
       458         2.9170          64.64          59.93           7.94
       459         2.9190          66.39          59.96           8.07
       460         2.9210          58.44          59.99           7.58
       461         2.9230          62.66          60.03           7.84
       462         2.9250          70.79          60.06           8.35
       463         2.9270          66.88          60.09           8.12
       464         2.9290          74.34          60.12           8.53
       465         2.9310          62.06          60.15           7.80
       466         2.9330          64.81          60.18           7.98
       467         2.9350          70.67          60.22           8.32
       468         2.9370          71.09          60.25           8.35
       469         2.9390          71.19          60.28           8.35
       470         2.9410          61.32          60.31           7.75
       471         2.9430          69.11          60.34           8.22
       472         2.9450          54.74          60.37           7.31
       473         2.9470          68.71          60.40           8.20
       474         2.9490          61.41          60.43           7.76
       475         2.9510          62.52          60.46           7.83
       476         2.9530          62.99          60.49           7.85
       477         2.9550          68.13          60.52           8.18
       478         2.9570          63.58          60.55           7.90
       479         2.9590          54.72          60.58           7.32
       480         2.9610          60.90          60.61           7.73
       481         2.9630          64.40          60.64           7.96
       482         2.9650          57.90          60.67           7.54
       483         2.9670          66.68          60.70           8.07
       484         2.9690          62.53          60.73           7.82
       485         2.9710          65.68          60.76           8.02
       486         2.9730          55.75          60.79           7.38
       487         2.9750          74.16          60.82           8.53
       488         2.9770          74.97          60.85           8.59
       489         2.9790          68.02          60.88           8.18
       490         2.9810          61.68          60.91           7.79
       491         2.9830          62.48          60.94           7.83
       492         2.9850          59.83          60.97           7.66
       493         2.9870          56.53          60.99           7.44
       494         2.9890          61.47          61.02           7.77
       495         2.9910          61.19          61.05           7.76
       496         2.9930          63.79          61.08           7.90
       497         2.9950          86.21          61.11           9.19
       498         2.9970          64.25          61.14           7.92
       499         2.9990          59.41          61.17           7.64
       500         3.0010          54.74          61.19           7.33
       501         3.0030          59.17          61.22           7.63
       502         3.0050          56.15          61.25           7.43
       503         3.0070          63.45          61.28           7.89
       504         3.0090          57.18          61.30           7.48
       505         3.0110          49.87          61.33           6.95
       506         3.0130          66.83          61.36           8.11
       507         3.0150          73.85          61.39           8.51
       508         3.0170          67.82          61.41           8.16
       509         3.0190          71.35          61.44           8.37
       510         3.0210          62.53          61.47           7.81
       511         3.0230          48.32          61.50           6.89
       512         3.0250          53.25          61.52           7.23
       513         3.0270          56.05          61.55           7.41
       514         3.0290          57.99          61.58           7.53
       515         3.0310          58.05          61.60           7.55
       516         3.0330          59.00          61.63           7.60
       517         3.0350          57.23          61.66           7.49
       518         3.0370          58.92          61.68           7.59
       519         3.0390          64.54          61.71           7.96
       520         3.0410          65.33          61.74           8.01
       521         3.0430          65.03          61.76           7.97
       522         3.0450          78.63          61.79           8.76
       523         3.0470          62.62          61.81           7.82
       524         3.0490          74.63          61.84           8.56
       525         3.0510          64.16          61.87           7.92
       526         3.0530          53.67          61.89           7.24
       527         3.0550          63.59          61.92           7.89
       528         3.0570          61.81          61.94           7.78
       529         3.0590          72.95          61.97           8.44
       530         3.0610          67.78          61.99           8.15
       531         3.0630          67.38          62.02           8.13
       532         3.0650          56.56          62.04           7.45
       533         3.0670          58.05          62.07           7.55
       534         3.0690          54.09          62.09           7.29
       535         3.0710          65.29          62.12           8.00
       536         3.0730          64.93          62.14           7.98
       537         3.0750          64.28          62.17           7.94
       538         3.0770          62.54          62.19           7.83
       539         3.0790          63.32          62.22           7.89
       540         3.0810          63.39          62.24           7.88
       541         3.0830          51.44          62.26           7.10
       542         3.0850          57.39          62.29           7.49
       543         3.0870          57.44          62.31           7.51
       544         3.0890          59.57          62.34           7.64
       545         3.0910          52.29          62.36           7.16
       546         3.0930          54.31          62.38           7.29
       547         3.0950          50.07          62.41           6.98
       548         3.0970          64.35          62.43           7.95
       549         3.0990          59.27          62.46           7.63
       550         3.1010          61.91          62.48           7.80
       551         3.1030          54.24          62.50           7.29
       552         3.1050          60.91          62.53           7.72
       553         3.1070          66.79          62.55           8.09
       554         3.1090          78.34          62.57           8.76
       555         3.1110          59.85          62.59           7.66
       556         3.1130          55.77          62.62           7.40
       557         3.1150          56.37          62.64           7.43
       558         3.1170          65.29          62.66           8.01
       559         3.1190          59.49          62.69           7.64
       560         3.1210          64.85          62.71           7.99
       561         3.1230          62.80          62.73           7.85
       562         3.1250          62.47          62.75           7.83
       563         3.1270          58.43          62.78           7.56
       564         3.1290          49.94          62.80           7.00
       565         3.1310          53.33          62.82           7.22
       566         3.1330          54.52          62.84           7.32
       567         3.1350          62.11          62.86           7.81
       568         3.1370          62.12          62.89           7.81
       569         3.1390          67.88          62.91           8.15
       570         3.1410          65.94          62.93           8.02
       571         3.1430          77.64          62.95           8.73
       572         3.1450          63.42          62.97           7.89
       573         3.1470          58.08          62.99           7.55
       574         3.1490          67.13          63.02           8.10
       575         3.1510          79.71          63.04           8.85
       576         3.1530          84.24          63.06           9.07
       577         3.1550          90.99          63.08           9.46
       578         3.1570         106.07          63.10          10.21
       579         3.1590         102.85          63.12          10.02
       580         3.1610          67.96          63.14           8.16
       581         3.1630          61.79          63.16           7.78
       582         3.1650          79.99          63.19           8.84
       583         3.1670          64.74          63.21           7.96
       584         3.1690          69.64          63.23           8.27
       585         3.1710          62.33          63.25           7.81
       586         3.1730          60.03          63.27           7.65
       587         3.1750          64.86          63.29           7.98
       588         3.1770          63.35          63.31           7.89
       589         3.1790          65.30          63.33           8.01
       590         3.1810          70.07          63.35           8.30
       591         3.1830          65.19          63.37           8.00
       592         3.1850          58.94          63.39           7.61
       593         3.1870          62.77          63.41           7.84
       594         3.1890          59.20          63.43           7.62
       595         3.1910          50.97          63.45           7.07
       596         3.1930          58.92          63.47           7.61
       597         3.1950          82.39          63.49           8.96
       598         3.1970          94.43          63.51           9.61
       599         3.1990          81.27          63.53           8.91
       600         3.2010          81.89          63.55           8.98
       601         3.2030          80.94          63.57           8.93
       602         3.2050          74.59          63.59           8.55
       603         3.2070          61.36          63.61           7.76
       604         3.2090          56.14          63.63           7.42
       605         3.2110          56.05          63.65           7.41
       606         3.2130          58.06          63.67           7.54
       607         3.2150          52.56          63.69           7.16
       608         3.2170          65.92          63.71           8.05
       609         3.2190          57.88          63.72           7.53
       610         3.2210          54.09          63.74           7.28
       611         3.2230          56.93          63.76           7.47
       612         3.2250          67.21          63.78           8.12
       613         3.2270          63.38          63.80           7.88
       614         3.2290          52.08          63.82           7.14
       615         3.2310          57.59          63.84           7.51
       616         3.2330          55.92          63.86           7.40
       617         3.2350          64.61          63.88           7.95
       618         3.2370          55.53          63.90           7.37
       619         3.2390          58.33          63.91           7.56
       620         3.2410          58.42          63.93           7.58
       621         3.2430          74.96          63.95           8.56
       622         3.2450          67.27          63.97           8.12
       623         3.2470          63.70          63.99           7.91
       624         3.2490          61.39          64.01           7.76
       625         3.2510          78.44          64.03           8.74
       626         3.2530          62.47          64.04           7.80
       627         3.2550          51.95          64.06           7.13
       628         3.2570          49.41          64.08           6.93
       629         3.2590          66.31          64.10           8.06
       630         3.2610          58.92          64.12           7.60
       631         3.2630          61.62          64.14           7.77
       632         3.2650          56.04          64.15           7.40
       633         3.2670          63.56          64.17           7.90
       634         3.2690          69.25          64.19           8.23
       635         3.2710          61.43          64.21           7.75
       636         3.2730          66.15          64.23           8.05
       637         3.2750          55.98          64.24           7.40
       638         3.2770          67.76          64.26           8.15
       639         3.2790          63.91          64.28           7.92
       640         3.2810          60.10          64.30           7.68
       641         3.2830          63.66          64.32           7.92
       642         3.2850          57.65          64.33           7.53
       643         3.2870          66.74          64.35           8.09
       644         3.2890          77.56          64.37           8.71
       645         3.2910          64.63          64.39           7.95
       646         3.2930          72.37          64.41           8.43
       647         3.2950          64.19          64.42           7.91
       648         3.2970          51.09          64.44           7.08
       649         3.2990          52.06          64.46           7.15
       650         3.3010          58.12          64.48           7.55
       651         3.3030          67.54          64.49           8.13
       652         3.3050          51.83          64.51           7.11
       653         3.3070          72.86          64.53           8.44
       654         3.3090          63.08          64.55           7.86
       655         3.3110          52.26          64.57           7.16
       656         3.3130          61.93          64.58           7.79
       657         3.3150          62.61          64.60           7.85
       658         3.3170          57.10          64.62           7.50
       659         3.3190          62.40          64.64           7.83
       660         3.3210          61.62          64.65           7.76
       661         3.3230          54.24          64.67           7.28
       662         3.3250          56.89          64.69           7.46
       663         3.3270          59.20          64.71           7.59
       664         3.3290          68.75          64.72           8.22
       665         3.3310          79.07          64.74           8.80
       666         3.3330          70.82          64.76           8.33
       667         3.3350          68.46          64.78           8.20
       668         3.3370          62.60          64.79           7.84
       669         3.3390          59.46          64.81           7.64
       670         3.3410          65.72          64.83           8.02
       671         3.3430          57.75          64.85           7.52
       672         3.3450          63.97          64.86           7.91
       673         3.3470          51.10          64.88           7.06
       674         3.3490          56.81          64.90           7.46
       675         3.3510          55.14          64.92           7.36
       676         3.3530          68.16          64.94           8.15
       677         3.3550          61.24          64.95           7.74
       678         3.3570          64.57          64.97           7.95
       679         3.3590          50.59          64.99           7.04
       680         3.3610          49.94          65.01           6.99
       681         3.3630          59.81          65.02           7.62
       682         3.3650          68.93          65.04           8.22
       683         3.3670          70.45          65.06           8.32
       684         3.3690          65.58          65.08           8.02
       685         3.3710          75.25          65.09           8.58
       686         3.3730          58.08          65.11           7.53
       687         3.3750          62.29          65.13           7.82
       688         3.3770          68.15          65.15           8.19
       689         3.3790          61.73          65.17           7.77
       690         3.3810          58.61          65.18           7.56
       691         3.3830          68.33          65.20           8.18
       692         3.3850          59.02          65.22           7.61
       693         3.3870          63.72          65.24           7.91
       694         3.3890          55.70          65.26           7.39
       695         3.3910          76.50          65.27           8.64
       696         3.3930          56.75          65.29           7.43
       697         3.3950          62.46          65.31           7.81
       698         3.3970          51.48          65.33           7.09
       699         3.3990          60.66          65.35           7.72
       700         3.4010          71.21          65.36           8.36
       701         3.4030          56.94          65.38           7.46
       702         3.4050          69.54          65.40           8.23
       703         3.4070          65.79          65.42           8.03
       704         3.4090          61.19          65.44           7.75
       705         3.4110          64.67          65.45           7.98
       706         3.4130          62.30          65.47           7.82
       707         3.4150          60.66          65.49           7.72
       708         3.4170          59.97          65.51           7.67
       709         3.4190          70.73          65.53           8.32
       710         3.4210          71.12          65.55           8.35
       711         3.4230          64.82          65.57           7.97
       712         3.4250          63.79          65.58           7.91
       713         3.4270          58.97          65.60           7.60
       714         3.4290          58.65          65.62           7.59
       715         3.4310          60.20          65.64           7.69
       716         3.4330          54.53          65.66           7.32
       717         3.4350          60.30          65.68           7.69
       718         3.4370          59.87          65.70           7.66
       719         3.4390          64.59          65.72           7.96
       720         3.4410          66.08          65.73           8.07
       721         3.4430          63.64          65.75           7.92
       722         3.4450          67.43          65.77           8.14
       723         3.4470          75.41          65.79           8.61
       724         3.4490          74.54          65.81           8.56
       725         3.4510          64.44          65.83           7.95
       726         3.4530          60.07          65.85           7.68
       727         3.4550          63.51          65.87           7.89
       728         3.4570          64.62          65.89           7.96
       729         3.4590          62.28          65.91           7.82
       730         3.4610          71.02          65.93           8.31
       731         3.4630          55.22          65.95           7.32
       732         3.4650          60.19          65.97           7.69
       733         3.4670          56.10          65.99           7.40
       734         3.4690          51.66          66.01           7.10
       735         3.4710          55.25          66.03           7.35
       736         3.4730          66.12          66.05           8.05
       737         3.4750          59.04          66.07           7.61
       738         3.4770          58.12          66.09           7.56
       739         3.4790          69.96          66.11           8.27
       740         3.4810          62.15          66.13           7.80
       741         3.4830          51.57          66.15           7.10
       742         3.4850          54.21          66.17           7.28
       743         3.4870          70.54          66.19           8.30
       744         3.4890          64.96          66.21           7.97
       745         3.4910          72.58          66.23           8.43
       746         3.4930          72.41          66.25           8.42
       747         3.4950          67.18          66.27           8.10
       748         3.4970          71.30          66.29           8.37
       749         3.4990          63.92          66.31           7.92
       750         3.5010          67.61          66.33           8.12
       751         3.5030          63.85          66.36           7.91
       752         3.5050          68.68          66.38           8.21
       753         3.5070          74.74          66.40           8.56
       754         3.5090          63.84          66.42           7.91
       755         3.5110          64.55          66.44           7.96
       756         3.5130          79.62          66.46           8.83
       757         3.5150          69.73          66.48           8.27
       758         3.5170          72.80          66.51           8.45
       759         3.5190          76.63          66.53           8.67
       760         3.5210          66.10          66.55           8.05
       761         3.5230          62.37          66.57           7.82
       762         3.5250          70.24          66.59           8.31
       763         3.5270          63.44          66.62           7.90
       764         3.5290          67.11          66.64           8.11
       765         3.5310          80.56          66.66           8.90
       766         3.5330          78.70          66.68           8.79
       767         3.5350          68.54          66.71           8.19
       768         3.5370          69.30          66.73           8.21
       769         3.5390          59.15          66.75           7.57
       770         3.5410          52.38          66.78           7.14
       771         3.5430          66.92          66.80           8.10
       772         3.5450          64.55          66.82           7.95
       773         3.5470          53.54          66.85           7.24
       774         3.5490          66.73          66.87           8.08
       775         3.5510          61.76          66.89           7.76
       776         3.5530          54.69          66.92           7.30
       777         3.5550          61.36          66.94           7.76
       778         3.5570          68.21          66.96           8.15
       779         3.5590          72.10          66.99           8.41
       780         3.5610          65.25          67.01           8.00
       781         3.5630          72.44          67.04           8.44
       782         3.5650          76.85          67.06           8.68
       783         3.5670          71.27          67.09           8.35
       784         3.5690          70.31          67.11           8.29
       785         3.5710          65.27          67.13           8.00
       786         3.5730          65.22          67.16           8.01
       787         3.5750          71.65          67.18           8.38
       788         3.5770          81.95          67.21           8.96
       789         3.5790          77.04          67.23           8.68
       790         3.5810          56.87          67.26           7.47
       791         3.5830          65.87          67.29           8.03
       792         3.5850          69.43          67.31           8.25
       793         3.5870          72.16          67.34           8.39
       794         3.5890          70.79          67.36           8.33
       795         3.5910          67.36          67.39           8.12
       796         3.5930          72.14          67.41           8.41
       797         3.5950          59.72          67.44           7.65
       798         3.5970          58.28          67.47           7.56
       799         3.5990          63.02          67.49           7.86
       800         3.6010          60.17          67.52           7.68
       801         3.6030          60.98          67.55           7.73
       802         3.6050          56.20          67.57           7.42
       803         3.6070          57.49          67.60           7.49
       804         3.6090          71.65          67.63           8.38
       805         3.6110          65.58          67.66           8.01
       806         3.6130          67.62          67.68           8.13
       807         3.6150          64.03          67.71           7.91
       808         3.6170          71.36          67.74           8.37
       809         3.6190          65.86          67.77           8.04
       810         3.6210          55.64          67.79           7.38
       811         3.6230          52.84          67.82           7.17
       812         3.6250          73.53          67.85           8.49
       813         3.6270          71.12          67.88           8.35
       814         3.6290          63.74          67.91           7.91
       815         3.6310          65.58          67.94           8.02
       816         3.6330          66.76          67.97           8.08
       817         3.6350          80.18          67.99           8.87
       818         3.6370          77.51          68.02           8.70
       819         3.6390          68.28          68.05           8.16
       820         3.6410          68.92          68.08           8.22
       821         3.6430          72.18          68.11           8.37
       822         3.6450          75.06          70.07           8.55
       823         3.6470          58.96          70.17           7.60
       824         3.6490          65.35          70.26           7.99
       825         3.6510          74.75          70.37           8.56
       826         3.6530          69.00          70.47           8.22
       827         3.6550          71.66          70.58           8.39
       828         3.6570          69.81          70.70           8.27
       829         3.6590          59.91          70.81           7.66
       830         3.6610          66.94          70.94           8.10
       831         3.6630          61.99          71.07           7.80
       832         3.6650          70.75          71.20           8.32
       833         3.6670          78.77          71.35           8.80
       834         3.6690          72.62          71.50           8.45
       835         3.6710          69.86          71.65           8.29
       836         3.6730          79.59          71.82           8.84
       837         3.6750          83.66          71.99           9.06
       838         3.6770          63.92          72.17           7.92
       839         3.6790          66.92          72.37           8.11
       840         3.6810          70.46          72.57           8.33
       841         3.6830          83.45          72.79           9.04
       842         3.6850          69.88          73.02           8.27
       843         3.6870          76.31          73.27           8.64
       844         3.6890          63.78          73.53           7.89
       845         3.6910          78.14          73.82           8.71
       846         3.6930          86.82          74.12           9.23
       847         3.6950          75.23          74.44           8.59
       848         3.6970          79.20          74.79           8.81
       849         3.6990          75.68          75.17           8.62
       850         3.7010          68.00          75.58           8.17
       851         3.7030          76.05          76.03           8.65
       852         3.7050          84.89          76.51           9.12
       853         3.7070          74.05          77.04           8.52
       854         3.7090          76.73          77.63           8.67
       855         3.7110          91.60          78.27           9.47
       856         3.7130          68.29          78.98           8.17
       857         3.7150          75.59          79.77           8.61
       858         3.7170          70.81          80.65           8.34
       859         3.7190          75.13          81.63           8.59
       860         3.7210          96.65          82.74           9.73
       861         3.7230          84.20          84.00           9.08
       862         3.7250          80.66          85.43           8.90
       863         3.7270          92.50          87.08           9.53
       864         3.7290         107.63          88.98          10.26
       865         3.7310          80.41          91.19           8.86
       866         3.7330         104.15          93.78          10.09
       867         3.7350          93.25          96.86           9.56
       868         3.7370          95.14         100.55           9.66
       869         3.7390          96.96         105.02           9.70
       870         3.7410         123.37         110.51          11.02
       871         3.7430         117.25         117.37          10.73
       872         3.7450         124.61         126.08          11.06
       873         3.7470         144.42         137.38          11.91
       874         3.7490         158.00         152.40          12.46
       875         3.7510         160.51         172.95          12.54
       876         3.7530         179.33         202.08          13.24
       877         3.7550         226.09         245.24          14.90
       878         3.7570         340.66         313.66          18.21
       879         3.7590         450.62         441.93          20.97
       880         3.7610         806.02         777.59          27.84
       881         3.7630        1836.29        1771.34          41.80
       882         3.7650        4009.89        3920.84          62.26
       883         3.7670        6015.13        6137.83          76.80
       884         3.7690        5330.87        5183.84          72.12
       885         3.7710        2748.18        2668.79          51.18
       886         3.7730        1094.70        1135.82          32.39
       887         3.7750         597.50         559.98          24.10
       888         3.7770         380.10         364.18          19.28
       889         3.7790         236.91         274.53          15.19
       890         3.7810         212.12         221.29          14.42
       891         3.7830         174.98         186.36          13.08
       892         3.7850         153.52         162.23          12.26
       893         3.7870         149.21         144.90          12.09
       894         3.7890         127.13         132.05          11.16
       895         3.7910         125.37         122.28          11.09
       896         3.7930         116.95         114.68          10.70
       897         3.7950         100.80         108.66           9.94
       898         3.7970         107.62         103.81          10.27
       899         3.7990         101.92          99.85          10.00
       900         3.8010          89.76          96.58           9.39
       901         3.8030          97.18          93.84           9.77
       902         3.8050          99.25          91.54           9.88
       903         3.8070          98.55          89.58           9.83
       904         3.8090          89.78          87.90           9.38
       905         3.8110          98.33          86.45           9.83
       906         3.8130          94.79          85.20           9.64
       907         3.8150          88.18          84.10           9.29
       908         3.8170          84.99          83.14           9.10
       909         3.8190         103.03          82.29          10.05
       910         3.8210          97.19          81.54           9.76
       911         3.8230          85.32          80.88           9.13
       912         3.8250          88.84          80.29           9.35
       913         3.8270          85.42          79.76           9.15
       914         3.8290          77.63          79.29           8.72
       915         3.8310          75.60          78.86           8.62
       916         3.8330          78.41          78.48           8.76
       917         3.8350          69.86          78.14           8.27
       918         3.8370          74.20          77.83           8.52
       919         3.8390          78.25          77.55           8.76
       920         3.8410          71.85          77.29           8.40
       921         3.8430          71.45          77.06           8.37
       922         3.8450          76.10          76.85           8.63
       923         3.8470          76.59          76.66           8.63
       924         3.8490          87.48          76.49           9.27
       925         3.8510          85.22          76.34           9.14
       926         3.8530          67.69          76.19           8.14
       927         3.8550          72.64          76.07           8.44
       928         3.8570          80.12          75.95           8.84
       929         3.8590          88.84          75.84           9.34
       930         3.8610          86.33          75.75           9.20
       931         3.8630          76.95          75.66           8.68
       932         3.8650          69.12          75.59           8.24
       933         3.8670          75.48          75.52           8.59
       934         3.8690          64.66          75.45           7.95
       935         3.8710          80.58          75.40           8.87
       936         3.8730          76.53          75.35           8.66
       937         3.8750          80.91          75.31           8.91
       938         3.8770          76.03          75.27           8.64
       939         3.8790          77.74          75.24           8.73
       940         3.8810          67.45          75.21           8.13
       941         3.8830          76.71          75.18           8.67
       942         3.8850          76.37          75.17           8.65
       943         3.8870          82.15          75.15           8.99
       944         3.8890          71.80          75.14           8.39
       945         3.8910          71.92          73.23           8.39
       946         3.8930          76.70          73.29           8.67
       947         3.8950          76.31          73.34           8.65
       948         3.8970          76.66          73.40           8.67
       949         3.8990          74.41          73.45           8.54
       950         3.9010          65.68          73.51           8.03
       951         3.9030          69.10          73.56           8.24
       952         3.9050          78.51          73.62           8.78
       953         3.9070          79.92          73.67           8.85
       954         3.9090          74.36          73.73           8.53
       955         3.9110          75.63          73.79           8.61
       956         3.9130          79.82          73.84           8.84
       957         3.9150          85.89          73.90           9.17
       958         3.9170          65.07          73.96           7.95
       959         3.9190          71.49          74.02           8.36
       960         3.9210          78.12          74.07           8.74
       961         3.9230          74.61          74.13           8.55
       962         3.9250          75.34          74.19           8.61
       963         3.9270          77.98          74.25           8.74
       964         3.9290          72.91          74.31           8.46
       965         3.9310          73.38          74.37           8.47
       966         3.9330          63.03          74.43           7.85
       967         3.9350          82.84          74.49           8.97
       968         3.9370          92.07          74.55           9.49
       969         3.9390          73.94          74.61           8.51
       970         3.9410          78.88          74.67           8.78
       971         3.9430          74.88          74.73           8.55
       972         3.9450          67.65          74.79           8.14
       973         3.9470          84.24          74.85           9.07
       974         3.9490          74.07          74.91           8.52
       975         3.9510          68.70          74.97           8.21
       976         3.9530          79.04          75.03           8.81
       977         3.9550          79.34          75.09           8.82
       978         3.9570          78.83          75.16           8.79
       979         3.9590          71.52          75.22           8.37
       980         3.9610          75.20          75.28           8.59
       981         3.9630          82.48          75.34           8.99
       982         3.9650          64.86          75.41           7.97
       983         3.9670          72.19          75.47           8.42
       984         3.9690          86.62          75.53           9.22
       985         3.9710          85.11          75.60           9.12
       986         3.9730          73.58          75.66           8.47
       987         3.9750          82.96          75.73           9.02
       988         3.9770          81.70          75.79           8.94
       989         3.9790          94.09          75.85           9.61
       990         3.9810          92.14          75.92           9.50
       991         3.9830          81.62          75.98           8.93
       992         3.9850          86.16          76.05           9.20
       993         3.9870          92.27          76.12           9.50
       994         3.9890          89.13          76.18           9.35
       995         3.9910          76.83          76.25           8.69
       996         3.9930          82.00          76.31           8.97
       997         3.9950          77.78          76.38           8.73
       998         3.9970          73.09          76.45           8.45
       999         3.9990          81.44          76.52           8.94
      1000         4.0010         107.14          76.58          14.39
      1001         4.0030          99.72          76.65           9.75
      1002         4.0050          95.89          76.72           9.58
      1003         4.0070          87.38          76.79           9.14
      1004         4.0090          79.88          76.85           8.74
      1005         4.0110          88.81          76.92           9.22
      1006         4.0130          91.70          76.99           9.37
      1007         4.0150          86.28          77.06           9.09
      1008         4.0170          96.36          77.13           9.59
      1009         4.0190          82.57          77.20           8.88
      1010         4.0210          93.70          77.27           9.46
      1011         4.0230          91.82          77.34           9.37
      1012         4.0250          78.94          77.41           8.68
      1013         4.0270          86.68          77.48           9.10
      1014         4.0290          75.79          77.55           8.50
      1015         4.0310          85.26          77.62           9.02
      1016         4.0330         100.03          77.69           9.79
      1017         4.0350          83.58          77.77           8.93
      1018         4.0370          80.21          77.84           8.76
      1019         4.0390          93.96          77.91           9.48
      1020         4.0410          87.04          77.98           9.13
      1021         4.0430          73.39          78.05           8.38
      1022         4.0450          76.51          78.13           8.56
      1023         4.0470          86.27          78.20           9.08
      1024         4.0490          86.46          78.27           9.10
      1025         4.0510         101.94          78.35           9.87
      1026         4.0530          80.22          78.42           8.73
      1027         4.0550          83.34          78.49           8.93
      1028         4.0570          89.87          78.57           9.27
      1029         4.0590          94.77          78.64           9.52
      1030         4.0610          80.60          78.72           8.77
      1031         4.0630          79.77          78.79           8.73
      1032         4.0650          83.61          78.87           8.95
      1033         4.0670          76.31          78.94           8.55
      1034         4.0690          79.64          79.02           8.74
      1035         4.0710          89.32          79.10           9.24
      1036         4.0730          78.96          79.17           8.69
      1037         4.0750          85.30          79.25           9.03
      1038         4.0770          80.70          79.32           8.79
      1039         4.0790          81.08          79.40           8.81
      1040         4.0810         101.36          79.48           9.83
      1041         4.0830          88.41          79.56           9.19
      1042         4.0850          81.32          79.63           8.82
      1043         4.0870          85.03          79.71           9.01
      1044         4.0890          93.18          79.79           9.44
      1045         4.0910          94.10          79.87           9.49
      1046         4.0930          83.39          79.95           8.93
      1047         4.0950          83.17          80.02           8.92
      1048         4.0970         104.59          80.10           9.99
      1049         4.0990          85.14          80.18           9.01
      1050         4.1010          88.44          80.26           9.21
      1051         4.1030          89.27          80.34           9.25
      1052         4.1050          94.80          80.42           9.52
      1053         4.1070          80.59          80.50           8.77
      1054         4.1090          98.05          80.58           9.68
      1055         4.1110          94.62          80.66           9.52
      1056         4.1130          78.59          80.74           8.66
      1057         4.1150          73.24          80.83           8.38
      1058         4.1170          80.80          80.91           8.78
      1059         4.1190          84.63          80.99           9.00
      1060         4.1210          90.70          81.07           9.32
      1061         4.1230          87.19          81.15           9.14
      1062         4.1250          95.76          81.24           9.57
      1063         4.1270          91.16          81.32           9.33
      1064         4.1290          71.65          81.40           8.27
      1065         4.1310          79.19          81.48           8.68
      1066         4.1330          84.27          81.57           8.97
      1067         4.1350          97.11          81.65           9.64
      1068         4.1370          84.35          81.73           8.97
      1069         4.1390          88.47          81.82           9.20
      1070         4.1410          86.79          81.90           9.12
      1071         4.1430          77.40          81.99           8.60
      1072         4.1450          82.63          82.07           8.89
      1073         4.1470          82.66          82.16           8.89
      1074         4.1490          89.54          82.24           9.26
      1075         4.1510          86.97          82.33           9.13
      1076         4.1530          86.86          82.41           9.12
      1077         4.1550          90.49          82.50           9.29
      1078         4.1570          77.29          82.59           8.58
      1079         4.1590          88.31          82.67           9.19
      1080         4.1610          91.85          82.76           9.39
      1081         4.1630          95.88          82.85           9.58
      1082         4.1650          88.73          82.93           9.22
      1083         4.1670          95.83          83.02           9.57
      1084         4.1690          95.30          83.11           9.56
      1085         4.1710         102.83          83.19           9.91
      1086         4.1730          86.02          83.28           9.05
      1087         4.1750          96.46          83.37           9.60
      1088         4.1770          86.01          83.46           9.06
      1089         4.1790          85.58          83.55           9.05
      1090         4.1810          76.68          83.64           8.57
      1091         4.1830          96.05          83.73           9.58
      1092         4.1850          81.00          83.82           8.78
      1093         4.1870          87.54          83.91           9.15
      1094         4.1890          82.96          84.00           8.91
      1095         4.1910         101.98          84.09           9.87
      1096         4.1930          92.84          84.18           9.43
      1097         4.1950         101.19          84.27           9.84
      1098         4.1970          93.78          84.36           9.47
      1099         4.1990          79.95          84.45           8.74
      1100         4.2010          91.70          84.54           9.36
      1101         4.2030          90.03          84.63           9.28
      1102         4.2050          84.27          84.72           8.98
      1103         4.2070          94.98          84.81           9.53
      1104         4.2090          89.84          84.91           9.28
      1105         4.2110          88.94          85.00           9.22
      1106         4.2130          78.61          85.09           8.67
      1107         4.2150         101.22          85.18           9.82
      1108         4.2170          91.90          85.28           9.37
      1109         4.2190          82.00          85.37           8.86
      1110         4.2210          82.15          85.46           8.88
      1111         4.2230          92.69          85.56           9.42
      1112         4.2250          99.71          85.65           9.78
      1113         4.2270          86.39          85.74           9.08
      1114         4.2290          80.93          85.84           8.80
      1115         4.2310          98.61          85.93           9.71
      1116         4.2330         106.38          86.03          10.09
      1117         4.2350         106.58          86.12          10.11
      1118         4.2370          88.18          86.22           9.18
      1119         4.2390          97.74          86.31           9.67
      1120         4.2410          84.73          86.41           9.00
      1121         4.2430          90.78          86.50           9.31
      1122         4.2450          92.80          86.60           9.42
      1123         4.2470          81.94          86.70           8.86
      1124         4.2490          91.41          86.79           9.34
      1125         4.2510          83.55          86.89           8.94
      1126         4.2530          83.70          86.99           8.95
      1127         4.2550          92.31          87.08           9.40
      1128         4.2570         100.94          87.18           9.83
      1129         4.2590         104.87          87.28          10.02
      1130         4.2610          99.18          87.38           9.73
      1131         4.2630         103.02          87.47           9.92
      1132         4.2650          96.55          87.57           9.61
      1133         4.2670          97.01          87.67           9.63
      1134         4.2690          93.72          87.77           9.47
      1135         4.2710          91.28          87.87           9.35
      1136         4.2730          94.83          87.97           9.53
      1137         4.2750          95.87          88.07           9.57
      1138         4.2770          91.66          88.16           9.36
      1139         4.2790         102.90          88.26           9.92
      1140         4.2810          96.69          88.36           9.61
      1141         4.2830          97.05          88.46           9.64
      1142         4.2850          96.21          88.56           9.60
      1143         4.2870          77.53          88.66           8.60
      1144         4.2890          86.38          88.77           9.09
      1145         4.2910          87.52          88.87           9.13
      1146         4.2930          95.60          88.97           9.56
      1147         4.2950         101.79          89.07           9.88
      1148         4.2970         109.70          89.17          10.24
      1149         4.2990         104.67          89.27           9.99
      1150         4.3010          88.97          89.37           9.21
      1151         4.3030          71.08          89.47           8.23
      1152         4.3050          88.49          89.58           9.19
      1153         4.3070          91.24          89.68           9.34
      1154         4.3090          97.27          89.78           9.65
      1155         4.3110          91.62          89.88           9.36
      1156         4.3130          94.69          89.99           9.52
      1157         4.3150          84.06          90.09           8.95
      1158         4.3170          96.21          90.19           9.59
      1159         4.3190         106.59          90.30          10.10
      1160         4.3210          94.87          90.40           9.53
      1161         4.3230          92.72          90.51           9.42
      1162         4.3250          90.69          90.61           9.33
      1163         4.3270          94.72          90.71           9.52
      1164         4.3290         113.08          90.82          10.40
      1165         4.3310          88.49          90.92           9.18
      1166         4.3330          98.03          91.03           9.68
      1167         4.3350          96.05          91.13           9.59
      1168         4.3370          81.35          91.24           8.81
      1169         4.3390          85.56          91.34           9.05
      1170         4.3410          97.50          91.45           9.67
      1171         4.3430          94.17          91.56           9.48
      1172         4.3450          99.98          91.66           9.79
      1173         4.3470          94.39          91.77           9.50
      1174         4.3490          95.23          91.87           9.55
      1175         4.3510         101.25          91.98           9.84
      1176         4.3530          89.09          92.09           9.22
      1177         4.3550         114.63          92.19          10.46
      1178         4.3570          90.79          92.30           9.29
      1179         4.3590          98.44          92.41           9.70
      1180         4.3610         103.91          92.52           9.98
      1181         4.3630          98.84          92.62           9.73
      1182         4.3650          91.42          92.73           9.35
      1183         4.3670          92.31          92.84           9.40
      1184         4.3690          96.89          92.95           9.63
      1185         4.3710         101.52          93.06           9.85
      1186         4.3730          95.93          93.16           9.57
      1187         4.3750          93.06          93.27           9.43
      1188         4.3770          94.32          93.38           9.50
      1189         4.3790          98.76          93.49           9.72
      1190         4.3810          93.33          93.60           9.46
      1191         4.3830          89.63          93.71           9.27
      1192         4.3850          90.80          93.82           9.32
      1193         4.3870          85.42          93.93           9.04
      1194         4.3890          84.31          94.04           8.99
      1195         4.3910          86.85          94.15           9.13
      1196         4.3930         100.40          94.26           9.80
      1197         4.3950          91.48          94.37           9.34
      1198         4.3970          82.39          94.48           8.86
      1199         4.3990          94.54          94.59           9.50
      1200         4.4010          94.52          94.70           9.51
      1201         4.4030         100.76          94.81           9.81
      1202         4.4050          98.30          94.92           9.68
      1203         4.4070          90.34          95.03           9.28
      1204         4.4090         108.70          95.15          10.19
      1205         4.4110          94.04          95.26           9.47
      1206         4.4130          82.01          95.37           8.85
      1207         4.4150         100.73          95.48           9.79
      1208         4.4170         108.30          95.59          10.17
      1209         4.4190          98.09          95.71           9.66
      1210         4.4210          88.42          95.82           9.18
      1211         4.4230         104.78          95.93           9.99
      1212         4.4250         104.23          96.04           9.98
      1213         4.4270         103.10          96.16           9.91
      1214         4.4290          91.38          96.27           9.34
      1215         4.4310         105.33          96.38          10.02
      1216         4.4330          82.98          96.50           8.88
      1217         4.4350          93.96          96.61           9.47
      1218         4.4370          97.46          96.72           9.65
      1219         4.4390         104.57          96.84          10.00
      1220         4.4410         102.91          96.95           9.91
      1221         4.4430         113.03          97.07          10.38
      1222         4.4450          98.23          97.18           9.68
      1223         4.4470          92.89          97.29           9.42
      1224         4.4490          91.94          97.41           9.38
      1225         4.4510          83.19          97.52           8.92
      1226         4.4530          91.40          97.64           9.34
      1227         4.4550          88.18          97.75           9.18
      1228         4.4570         100.96          97.87           9.81
      1229         4.4590         101.90          97.98           9.87
      1230         4.4610         103.74          98.10           9.95
      1231         4.4630         102.50          98.22           9.89
      1232         4.4650          93.64          98.33           9.46
      1233         4.4670         104.98          98.45          10.01
      1234         4.4690          98.69          98.56           9.72
      1235         4.4710         107.64          98.68          10.15
      1236         4.4730         112.10          98.80          10.33
      1237         4.4750         114.94          98.91          10.47
      1238         4.4770          94.18          99.03           9.45
      1239         4.4790          99.72          99.15           9.75
      1240         4.4810         101.97          99.26           9.86
      1241         4.4830          86.26          99.38           9.05
      1242         4.4850          96.41          99.50           9.59
      1243         4.4870          86.92          99.61           9.11
      1244         4.4890         103.90          99.73           9.97
      1245         4.4910          90.94          99.85           9.32
      1246         4.4930         107.11          99.97          10.09
      1247         4.4950         102.13         100.08           9.86
      1248         4.4970          93.07         100.20           9.42
      1249         4.4990         104.32         100.32           9.98
      1250         4.5010         107.55         100.44          10.08
      1251         4.5030          96.87         100.56           9.58
      1252         4.5050          95.34         100.67           9.54
      1253         4.5070          98.35         100.79           9.67
      1254         4.5090         100.89         100.91           9.81
      1255         4.5110          92.68         101.03           9.40
      1256         4.5130         101.71         101.15           9.85
      1257         4.5150          98.62         101.27           9.70
      1258         4.5170          95.77         101.39           9.56
      1259         4.5190          88.41         101.50           9.19
      1260         4.5210          81.46         101.62           8.82
      1261         4.5230          94.19         101.74           9.47
      1262         4.5250          90.27         101.86           9.28
      1263         4.5270          94.94         101.98           9.51
      1264         4.5290          94.07         102.10           9.48
      1265         4.5310         102.90         102.22           9.91
      1266         4.5330         111.04         102.34          10.29
      1267         4.5350         104.62         102.46           9.98
      1268         4.5370          95.09         102.58           9.52
      1269         4.5390         112.48         102.70          10.36
      1270         4.5410         103.40         102.82           9.94
      1271         4.5430          99.41         102.94           9.73
      1272         4.5450         100.85         103.06           9.81
      1273         4.5470         112.91         103.18          10.38
      1274         4.5490         103.06         103.31           9.92
      1275         4.5510         104.28         103.43           9.98
      1276         4.5530          93.98         103.55           9.46
      1277         4.5550          94.60         103.67           9.49
      1278         4.5570         107.17         103.79          10.10
      1279         4.5590          96.48         103.91           9.59
      1280         4.5610          86.51         104.03           9.09
      1281         4.5630          99.75         104.15           9.75
      1282         4.5650         108.76         104.27          10.20
      1283         4.5670         102.65         104.40           9.89
      1284         4.5690         110.51         104.52          10.27
      1285         4.5710          93.21         104.64           9.43
      1286         4.5730          95.17         104.76           9.54
      1287         4.5750         104.33         104.88           9.98
      1288         4.5770         102.81         105.00           9.91
      1289         4.5790          90.28         105.13           9.27
      1290         4.5810          91.66         105.25           9.35
      1291         4.5830         101.17         105.37           9.83
      1292         4.5850         105.67         105.49          10.05
      1293         4.5870          98.26         105.62           9.69
      1294         4.5890         105.78         105.74          10.04
      1295         4.5910         108.72         105.86          10.19
      1296         4.5930          96.40         105.98           9.59
      1297         4.5950         103.05         106.11           9.92
      1298         4.5970          87.86         106.23           9.15
      1299         4.5990          96.54         106.35           9.60
      1300         4.6010         110.44         106.48          10.27
      1301         4.6030          96.45         106.60           9.60
      1302         4.6050          99.19         106.72           9.75
      1303         4.6070         104.15         106.85           9.96
      1304         4.6090         114.52         106.97          10.46
      1305         4.6110         117.62         107.09          10.61
      1306         4.6130         102.53         107.22           9.87
      1307         4.6150         101.77         107.34           9.86
      1308         4.6170          95.24         107.46           9.54
      1309         4.6190          95.91         107.59           9.57
      1310         4.6210         104.19         107.71           9.97
      1311         4.6230         116.75         107.83          10.55
      1312         4.6250         102.18         107.96           9.87
      1313         4.6270          96.63         108.08           9.60
      1314         4.6290          95.62         108.21           9.55
      1315         4.6310          87.53         108.33           9.13
      1316         4.6330          85.75         108.45           9.04
      1317         4.6350         107.10         108.58          10.10
      1318         4.6370         107.73         108.70          10.14
      1319         4.6390          98.31         108.83           9.69
      1320         4.6410         110.38         108.95          10.26
      1321         4.6430          96.36         109.07           9.58
      1322         4.6450          98.43         109.20           9.70
      1323         4.6470         107.23         109.32          10.12
      1324         4.6490          98.74         109.45           9.71
      1325         4.6510         105.85         109.57          10.05
      1326         4.6530         110.86         109.70          10.28
      1327         4.6550         100.08         109.82           9.77
      1328         4.6570          94.94         109.95           9.51
      1329         4.6590         103.96         110.07           9.96
      1330         4.6610         104.65         110.20          10.00
      1331         4.6630         100.97         110.32           9.82
      1332         4.6650         100.34         110.45           9.79
      1333         4.6670         107.07         110.57          10.10
      1334         4.6690         107.89         110.70          10.14
      1335         4.6710         103.22         110.82           9.93
      1336         4.6730         112.95         110.95          10.38
      1337         4.6750         108.45         111.07          10.17
      1338         4.6770         105.40         111.20          10.03
      1339         4.6790         119.90         111.32          10.70
      1340         4.6810         110.70         111.45          10.28
      1341         4.6830          92.36         111.57           9.39
      1342         4.6850          98.09         111.70           9.67
      1343         4.6870         115.69         111.82          10.50
      1344         4.6890         102.74         111.95           9.88
      1345         4.6910          87.69         112.07           9.14
      1346         4.6930          96.80         112.20           9.62
      1347         4.6950          96.14         112.32           9.57
      1348         4.6970          91.53         112.45           9.34
      1349         4.6990         107.10         112.58          10.11
      1350         4.7010         108.67         112.70          10.20
      1351         4.7030         110.65         112.83          10.24
      1352         4.7050         104.76         112.95           9.99
      1353         4.7070          99.95         113.08           9.77
      1354         4.7090         105.55         113.20          10.04
      1355         4.7110         115.53         113.33          10.50
      1356         4.7130         104.00         113.46           9.95
      1357         4.7150         105.40         113.58          10.03
      1358         4.7170         116.81         113.71          10.55
      1359         4.7190         106.10         113.83          10.06
      1360         4.7210         102.27         113.96           9.88
      1361         4.7230         111.70         114.08          10.33
      1362         4.7250         109.65         114.21          10.22
      1363         4.7270          95.53         114.33           9.54
      1364         4.7290         111.23         114.46          10.29
      1365         4.7310         103.08         114.59           9.92
      1366         4.7330          92.90         114.71           9.39
      1367         4.7350          99.50         114.84           9.74
      1368         4.7370         109.12         114.96          10.21
      1369         4.7390         102.90         115.09           9.91
      1370         4.7410         113.65         115.22          10.41
      1371         4.7430          97.89         115.34           9.66
      1372         4.7450         106.07         115.47          10.06
      1373         4.7470         120.54         115.59          10.73
      1374         4.7490         110.87         115.72          10.29
      1375         4.7510         102.53         115.85           9.90
      1376         4.7530         118.48         115.97          10.63
      1377         4.7550         112.86         116.10          10.38
      1378         4.7570         110.10         116.22          10.25
      1379         4.7590         104.32         116.35           9.98
      1380         4.7610         113.12         116.47          10.39
      1381         4.7630         120.74         116.60          10.73
      1382         4.7650         100.39         116.73           9.78
      1383         4.7670         104.74         116.85           9.99
      1384         4.7690         103.72         116.98           9.95
      1385         4.7710         111.72         117.10          10.33
      1386         4.7730         111.83         117.23          10.32
      1387         4.7750         108.50         117.36          10.17
      1388         4.7770         112.54         117.48          10.36
      1389         4.7790         103.58         117.61           9.94
      1390         4.7810         110.38         117.73          10.26
      1391         4.7830         109.74         117.86          10.23
      1392         4.7850         112.12         117.98          10.35
      1393         4.7870         104.77         118.11          10.00
      1394         4.7890          99.30         118.24           9.74
      1395         4.7910          99.14         118.36           9.73
      1396         4.7930         114.33         118.49          10.42
      1397         4.7950         119.97         118.61          10.69
      1398         4.7970         116.81         118.74          10.54
      1399         4.7990         119.35         118.86          10.66
      1400         4.8010         107.74         118.99          10.13
      1401         4.8030         113.22         119.11          10.38
      1402         4.8050         115.58         119.24          10.50
      1403         4.8070         105.90         119.36          10.04
      1404         4.8090         120.35         119.49          10.71
      1405         4.8110         116.82         119.62          10.55
      1406         4.8130         107.61         119.74          10.12
      1407         4.8150         115.68         119.87          10.49
      1408         4.8170         123.70         119.99          10.85
      1409         4.8190         113.79         120.12          10.40
      1410         4.8210         110.85         120.24          10.28
      1411         4.8230         135.02         120.37          11.32
      1412         4.8250         120.81         120.49          10.72
      1413         4.8270         126.11         120.62          10.95
      1414         4.8290         120.84         120.74          10.73
      1415         4.8310         119.16         120.87          10.66
      1416         4.8330         125.03         120.99          10.90
      1417         4.8350         105.55         121.12          10.01
      1418         4.8370         114.58         121.24          10.43
      1419         4.8390          98.79         121.37           9.69
      1420         4.8410         109.88         121.49          10.23
      1421         4.8430         125.85         121.62          10.95
      1422         4.8450         107.38         121.74          10.08
      1423         4.8470          95.72         121.87           9.54
      1424         4.8490         103.55         121.99           9.92
      1425         4.8510         118.04         122.12          10.60
      1426         4.8530         110.83         122.24          10.27
      1427         4.8550         106.09         122.36          10.04
      1428         4.8570         127.28         122.49          10.99
      1429         4.8590         102.86         122.61           9.87
      1430         4.8610         113.08         122.74          10.37
      1431         4.8630         115.56         122.86          10.48
      1432         4.8650         103.66         122.99           9.94
      1433         4.8670         104.65         123.11           9.98
      1434         4.8690         136.66         123.24          11.39
      1435         4.8710         115.07         123.36          10.45
      1436         4.8730         127.76         123.48          11.02
      1437         4.8750         127.71         123.61          11.03
      1438         4.8770         121.53         123.73          10.73
      1439         4.8790         115.70         123.85          10.48
      1440         4.8810         106.53         123.98          10.07
      1441         4.8830         115.49         124.10          10.48
      1442         4.8850         117.27         124.22          10.57
      1443         4.8870         104.62         124.35           9.97
      1444         4.8890         107.20         124.47          10.10
      1445         4.8910         118.62         124.60          10.63
      1446         4.8930         129.03         124.72          11.08
      1447         4.8950         130.59         124.84          11.16
      1448         4.8970         117.45         124.96          10.58
      1449         4.8990         115.49         125.09          10.46
      1450         4.9010         119.98         125.21          10.68
      1451         4.9030         147.83         125.33          11.85
      1452         4.9050         123.54         125.46          10.83
      1453         4.9070         124.49         125.58          10.88
      1454         4.9090         115.18         125.70          10.47
      1455         4.9110         110.98         125.82          10.29
      1456         4.9130         111.13         125.95          10.28
      1457         4.9150         117.06         126.07          10.56
      1458         4.9170         109.77         126.19          10.23
      1459         4.9190         109.72         126.32          10.21
      1460         4.9210         112.58         126.44          10.35
      1461         4.9230         117.59         126.56          10.57
      1462         4.9250         124.83         126.68          10.89
      1463         4.9270         121.89         126.80          10.78
      1464         4.9290         111.61         126.93          10.31
      1465         4.9310         130.89         127.05          11.15
      1466         4.9330         146.57         127.17          11.80
      1467         4.9350         126.94         127.29          10.99
      1468         4.9370         116.65         127.41          10.54
      1469         4.9390         117.27         127.53          10.55
      1470         4.9410         132.86         127.65          11.24
      1471         4.9430         124.76         127.78          10.90
      1472         4.9450         128.72         127.90          11.07
      1473         4.9470         133.32         128.02          11.26
      1474         4.9490         129.00         128.14          11.08
      1475         4.9510         120.61         128.26          10.72
      1476         4.9530         129.44         128.38          11.09
      1477         4.9550         115.63         128.50          10.48
      1478         4.9570         108.35         128.62          10.16
      1479         4.9590         129.42         128.74          11.10
      1480         4.9610         131.43         128.86          11.20
      1481         4.9630         112.99         128.98          10.34
      1482         4.9650         118.93         129.10          10.63
      1483         4.9670         141.05         129.22          11.58
      1484         4.9690         130.92         129.34          11.16
      1485         4.9710         116.77         129.46          10.54
      1486         4.9730         135.48         129.58          11.35
      1487         4.9750         128.42         129.70          11.06
      1488         4.9770         118.51         129.82          10.61
      1489         4.9790         128.81         129.94          11.07
      1490         4.9810         133.88         130.06          11.30
      1491         4.9830         132.07         130.18          11.22
      1492         4.9850         129.74         130.30          11.11
      1493         4.9870         143.46         130.42          11.68
      1494         4.9890         145.87         130.53          11.79
      1495         4.9910         125.02         130.65          10.91
      1496         4.9930         121.37         130.77          10.75
      1497         4.9950         131.21         130.89          11.18
      1498         4.9970         117.60         131.01          10.57
      1499         4.9990         118.91         131.13          10.64
      1500         5.0010         139.72         131.24          11.53
      1501         5.0030         121.94         131.36          10.76
      1502         5.0050         110.94         131.48          10.28
      1503         5.0070         127.79         131.60          11.02
      1504         5.0090         137.30         131.71          11.42
      1505         5.0110         117.97         131.83          10.58
      1506         5.0130         127.84         131.95          11.02
      1507         5.0150         128.89         132.07          11.07
      1508         5.0170         129.17         132.18          11.08
      1509         5.0190         118.45         132.30          10.61
      1510         5.0210         117.82         132.42          10.59
      1511         5.0230         123.83         132.53          10.84
      1512         5.0250         142.85         132.65          11.65
      1513         5.0270         150.21         132.77          11.95
      1514         5.0290         134.04         132.88          11.28
      1515         5.0310         130.54         133.00          11.14
      1516         5.0330         127.69         133.12          11.01
      1517         5.0350         144.02         133.23          11.70
      1518         5.0370         131.15         133.35          11.16
      1519         5.0390         121.56         133.46          10.76
      1520         5.0410         136.86         133.58          11.41
      1521         5.0430         129.73         133.69          11.10
      1522         5.0450         123.38         133.81          10.83
      1523         5.0470         130.77         133.92          11.14
      1524         5.0490         137.55         134.04          11.44
      1525         5.0510         126.69         134.15          10.99
      1526         5.0530         131.07         134.27          11.16
      1527         5.0550         144.10         134.38          11.71
      1528         5.0570         124.65         134.50          10.88
      1529         5.0590         122.01         134.61          10.78
      1530         5.0610         115.07         134.72          10.47
      1531         5.0630         117.19         134.84          10.56
      1532         5.0650         128.44         134.95          11.04
      1533         5.0670         148.44         135.07          11.88
      1534         5.0690         149.39         135.18          11.93
      1535         5.0710         130.32         135.29          11.14
      1536         5.0730         130.31         135.40          11.14
      1537         5.0750         139.55         135.52          11.52
      1538         5.0770         141.17         135.63          11.59
      1539         5.0790         148.20         135.74          11.89
      1540         5.0810         146.42         135.85          11.77
      1541         5.0830         132.66         135.97          11.22
      1542         5.0850         147.11         136.08          11.83
      1543         5.0870         135.83         136.19          11.36
      1544         5.0890         141.01         136.30          11.59
      1545         5.0910         134.16         136.41          11.30
      1546         5.0930         134.77         136.53          11.32
      1547         5.0950         137.61         136.64          11.45
      1548         5.0970         116.39         136.75          10.51
      1549         5.0990         137.58         136.86          11.43
      1550         5.1010         122.88         136.97          10.81
      1551         5.1030         138.12         137.08          11.45
      1552         5.1050         148.42         137.19          11.89
      1553         5.1070         141.08         137.30          11.59
      1554         5.1090         153.99         137.41          12.11
      1555         5.1110         141.01         137.52          11.59
      1556         5.1130         130.28         137.63          11.14
      1557         5.1150         135.08         137.74          11.33
      1558         5.1170         137.62         137.85          11.43
      1559         5.1190         136.57         137.96          11.40
      1560         5.1210         132.14         138.07          11.21
      1561         5.1230         116.82         138.18          10.54
      1562         5.1250         121.77         138.29          10.77
      1563         5.1270         137.76         138.39          11.43
      1564         5.1290         132.09         138.50          11.21
      1565         5.1310         135.65         138.61          11.37
      1566         5.1330         138.87         138.72          11.50
      1567         5.1350         139.68         138.83          11.53
      1568         5.1370         150.70         138.93          11.97
      1569         5.1390         140.15         139.04          11.55
      1570         5.1410         144.08         139.15          11.71
      1571         5.1430         134.65         139.26          11.31
      1572         5.1450         131.92         139.36          11.21
      1573         5.1470         157.65         139.47          12.22
      1574         5.1490         149.64         139.58          11.93
      1575         5.1510         132.87         139.68          11.25
      1576         5.1530         129.01         139.79          11.07
      1577         5.1550         126.61         139.90          10.98
      1578         5.1570         136.97         140.00          11.41
      1579         5.1590         142.12         140.11          11.63
      1580         5.1610         157.23         140.21          12.23
      1581         5.1630         136.95         140.32          11.40
      1582         5.1650         132.82         140.42          11.24
      1583         5.1670         143.24         140.53          11.67
      1584         5.1690         149.69         140.63          11.94
      1585         5.1710         164.90         140.74          12.53
      1586         5.1730         130.83         140.84          11.13
      1587         5.1750         129.16         140.94          11.10
      1588         5.1770         114.17         141.05          10.42
      1589         5.1790         139.11         141.15          11.50
      1590         5.1810         141.16         141.26          11.60
      1591         5.1830         139.79         141.36          11.53
      1592         5.1850         134.66         141.46          11.32
      1593         5.1870         133.82         141.57          11.28
      1594         5.1890         124.85         141.67          10.90
      1595         5.1910         132.40         141.77          11.22
      1596         5.1930         137.01         141.87          11.42
      1597         5.1950         134.60         141.97          11.32
      1598         5.1970         133.48         142.08          11.27
      1599         5.1990         139.64         142.18          11.54
      1600         5.2010         157.85         142.28          12.26
      1601         5.2030         147.34         142.38          11.84
      1602         5.2050         146.82         142.48          11.83
      1603         5.2070         136.85         142.58          11.41
      1604         5.2090         142.93         144.90          11.67
      1605         5.2110         138.32         145.07          11.47
      1606         5.2130         132.82         145.25          11.23
      1607         5.2150         153.27         145.44          12.07
      1608         5.2170         161.37         145.62          12.38
      1609         5.2190         161.20         145.82          12.38
      1610         5.2210         140.03         146.02          11.54
      1611         5.2230         138.77         146.22          11.48
      1612         5.2250         141.66         146.43          11.61
      1613         5.2270         131.75         146.65          11.19
      1614         5.2290         149.38         146.87          11.92
      1615         5.2310         145.26         147.10          11.76
      1616         5.2330         156.62         147.34          12.19
      1617         5.2350         147.04         147.58          11.82
      1618         5.2370         143.97         147.84          11.70
      1619         5.2390         138.04         148.10          11.47
      1620         5.2410         140.34         148.38          11.55
      1621         5.2430         154.96         148.68          12.14
      1622         5.2450         155.16         148.98          12.16
      1623         5.2470         150.73         149.30          11.97
      1624         5.2490         152.60         149.64          12.05
      1625         5.2510         160.38         149.99          12.36
      1626         5.2530         141.04         150.37          11.58
      1627         5.2550         147.61         150.77          11.85
      1628         5.2570         149.08         151.19          11.90
      1629         5.2590         160.14         151.64          12.34
      1630         5.2610         155.61         152.13          12.16
      1631         5.2630         152.86         152.65          12.05
      1632         5.2650         159.53         153.21          12.33
      1633         5.2670         154.14         153.81          12.10
      1634         5.2690         158.95         154.47          12.30
      1635         5.2710         167.87         155.19          12.65
      1636         5.2730         163.51         155.97          12.46
      1637         5.2750         147.96         156.83          11.86
      1638         5.2770         171.68         157.78          12.77
      1639         5.2790         171.99         158.84          12.79
      1640         5.2810         168.44         160.02          12.67
      1641         5.2830         175.14         161.34          12.91
      1642         5.2850         161.06         162.84          12.38
      1643         5.2870         158.11         164.54          12.26
      1644         5.2890         145.21         166.48          11.75
      1645         5.2910         170.04         168.73          12.71
      1646         5.2930         171.59         171.34          12.77
      1647         5.2950         171.04         174.40          12.76
      1648         5.2970         172.11         178.04          12.80
      1649         5.2990         179.63         182.41          13.07
      1650         5.3010         193.77         187.71          13.57
      1651         5.3030         187.88         194.26          13.36
      1652         5.3050         178.77         202.46          13.03
      1653         5.3070         204.49         212.94          13.94
      1654         5.3090         224.86         226.62          14.63
      1655         5.3110         230.41         244.97          14.81
      1656         5.3130         253.13         270.34          15.50
      1657         5.3150         285.64         306.82          16.48
      1658         5.3170         340.08         361.81          17.97
      1659         5.3190         399.73         451.48          19.49
      1660         5.3210         561.46         628.41          23.02
      1661         5.3230         928.83        1101.99          29.53
      1662         5.3250        2044.37        2403.19          43.58
      1663         5.3270        4536.23        4839.45          64.93
      1664         5.3290        6668.32        6332.01          79.42
      1665         5.3310        5405.71        4328.70          71.53
      1666         5.3330        2721.86        2063.61          50.08
      1667         5.3350        1217.06         969.05          33.58
      1668         5.3370         681.31         582.88          25.34
      1669         5.3390         463.18         431.23          20.96
      1670         5.3410         357.05         350.43          18.42
      1671         5.3430         300.23         299.98          16.87
      1672         5.3450         253.60         266.23          15.52
      1673         5.3470         243.52         242.61          15.22
      1674         5.3490         229.98         225.47          14.80
      1675         5.3510         205.96         212.66          14.00
      1676         5.3530         198.20         202.85          13.74
      1677         5.3550         186.85         195.18          13.34
      1678         5.3570         191.77         189.07          13.50
      1679         5.3590         187.09         184.14          13.34
      1680         5.3610         188.96         180.10          13.41
      1681         5.3630         183.16         176.75          13.20
      1682         5.3650         180.01         173.95          13.09
      1683         5.3670         181.67         171.59          13.14
      1684         5.3690         170.68         169.58          12.74
      1685         5.3710         172.08         167.86          12.80
      1686         5.3730         169.14         166.38          12.69
      1687         5.3750         179.35         165.09          13.05
      1688         5.3770         190.36         163.97          13.44
      1689         5.3790         167.94         162.99          12.62
      1690         5.3810         176.63         162.13          12.96
      1691         5.3830         182.55         161.37          13.17
      1692         5.3850         167.31         160.70          12.61
      1693         5.3870         173.98         160.10          12.84
      1694         5.3890         175.00         159.57          12.90
      1695         5.3910         152.09         159.09          12.02
      1696         5.3930         153.97         158.67          12.10
      1697         5.3950         156.32         158.29          12.19
      1698         5.3970         152.26         157.95          12.03
      1699         5.3990         142.42         157.65          11.64
      1700         5.4010         158.99         157.37          12.30
      1701         5.4030         164.92         157.13          12.53
      1702         5.4050         155.30         156.91          12.13
      1703         5.4070         177.44         156.71          12.97
      1704         5.4090         169.02         156.53          12.66
      1705         5.4110         167.31         156.37          12.61
      1706         5.4130         145.44         156.23          11.75
      1707         5.4150         145.69         156.10          11.77
      1708         5.4170         184.55         155.98          13.23
      1709         5.4190         151.58         155.88          11.98
      1710         5.4210         175.49         155.78          12.89
      1711         5.4230         160.54         155.70          12.34
      1712         5.4250         155.16         155.63          12.14
      1713         5.4270         153.37         155.57          12.07
      1714         5.4290         176.93         155.51          12.97
      1715         5.4310         154.35         155.46          12.11
      1716         5.4330         148.89         155.42          11.88
      1717         5.4350         163.76         155.38          12.47
      1718         5.4370         151.24         155.35          11.99
      1719         5.4390         158.72         155.33          12.28
      1720         5.4410         159.90         155.31          12.34
      1721         5.4430         146.04         155.29          11.77
      1722         5.4450         164.92         155.28          12.52
      1723         5.4470         167.41         155.27          12.62
      1724         5.4490         158.28         155.27          12.27
      1725         5.4510         154.47         153.14          12.12
      1726         5.4530         156.47         153.21          12.20
      1727         5.4550         162.76         153.28          12.44
      1728         5.4570         159.89         153.35          12.33
      1729         5.4590         151.93         153.43          12.02
      1730         5.4610         162.43         153.49          12.43
      1731         5.4630         168.35         153.56          12.65
      1732         5.4650         157.65         153.63          12.24
      1733         5.4670         175.75         153.70          12.92
      1734         5.4690         177.16         153.77          12.97
      1735         5.4710         162.76         153.84          12.44
      1736         5.4730         152.84         153.91          12.04
      1737         5.4750         159.01         153.98          12.29
      1738         5.4770         157.40         154.04          12.23
      1739         5.4790         150.90         154.11          11.98
      1740         5.4810         164.61         154.18          12.51
      1741         5.4830         154.49         154.24          12.11
      1742         5.4850         164.78         154.31          12.51
      1743         5.4870         161.57         154.38          12.39
      1744         5.4890         157.25         154.44          12.21
      1745         5.4910         156.56         154.51          12.20
      1746         5.4930         159.28         154.57          12.31
      1747         5.4950         159.99         154.64          12.34
      1748         5.4970         160.18         154.70          12.31
      1749         5.4990         178.00         154.77          13.00
      1750         5.5010         158.71         154.83          12.27
      1751         5.5030         156.10         154.90          12.18
      1752         5.5050         180.14         154.96          13.08
      1753         5.5070         156.83         155.02          12.20
      1754         5.5090         169.41         155.09          12.68
      1755         5.5110         166.69         155.15          12.59
      1756         5.5130         169.46         155.21          12.70
      1757         5.5150         167.33         155.27          12.63
      1758         5.5170         173.48         155.34          12.84
      1759         5.5190         166.13         155.40          12.56
      1760         5.5210         160.30         155.46          12.34
      1761         5.5230         152.42         155.52          12.03
      1762         5.5250         160.89         155.58          12.37
      1763         5.5270         166.94         155.64          12.59
      1764         5.5290         170.50         155.70          12.73
      1765         5.5310         160.45         155.76          12.36
      1766         5.5330         150.83         155.82          11.97
      1767         5.5350         169.06         155.88          12.68
      1768         5.5370         156.45         155.94          12.19
      1769         5.5390         169.59         156.00          12.70
      1770         5.5410         173.01         156.06          12.83
      1771         5.5430         186.60         156.12          13.32
      1772         5.5450         190.75         156.17          13.47
      1773         5.5470         172.85         156.23          12.81
      1774         5.5490         160.68         156.29          12.36
      1775         5.5510         164.62         156.35          12.52
      1776         5.5530         155.47         156.40          12.15
      1777         5.5550         156.16         156.46          12.19
      1778         5.5570         175.07         156.51          12.90
      1779         5.5590         158.07         156.57          12.26
      1780         5.5610         161.77         156.63          12.41
      1781         5.5630         148.33         156.68          11.88
      1782         5.5650         170.69         156.74          12.74
      1783         5.5670         150.17         156.79          11.92
      1784         5.5690         165.90         156.85          12.55
      1785         5.5710         158.20         156.90          12.27
      1786         5.5730         164.13         156.96          12.50
      1787         5.5750         151.89         157.01          12.03
      1788         5.5770         168.72         157.06          12.65
      1789         5.5790         151.24         157.12          11.98
      1790         5.5810         169.50         157.17          12.69
      1791         5.5830         183.87         157.22          13.22
      1792         5.5850         178.41         157.27          13.03
      1793         5.5870         161.05         157.32          12.38
      1794         5.5890         156.54         157.38          12.20
      1795         5.5910         154.90         157.43          12.14
      1796         5.5930         172.22         157.48          12.79
      1797         5.5950         174.42         157.53          12.89
      1798         5.5970         161.69         157.58          12.40
      1799         5.5990         148.38         157.63          11.87
      1800         5.6010         171.03         157.68          12.75
      1801         5.6030         153.49         157.73          12.06
      1802         5.6050         152.67         157.78          12.05
      1803         5.6070         161.22         157.83          12.38
      1804         5.6090         170.17         157.88          12.73
      1805         5.6110         160.35         157.92          12.35
      1806         5.6130         164.31         157.97          12.49
      1807         5.6150         157.39         158.02          12.23
      1808         5.6170         162.85         158.07          12.44
      1809         5.6190         157.26         158.11          12.23
      1810         5.6210         169.25         158.16          12.68
      1811         5.6230         166.96         158.21          12.59
      1812         5.6250         154.17         158.25          12.11
      1813         5.6270         174.51         158.30          12.88
      1814         5.6290         154.11         158.35          12.10
      1815         5.6310         169.17         158.39          12.68
      1816         5.6330         175.86         158.44          12.92
      1817         5.6350         151.89         158.48          12.00
      1818         5.6370         167.49         158.52          12.60
      1819         5.6390         166.66         158.57          12.59
      1820         5.6410         171.34         158.61          12.77
      1821         5.6430         180.66         158.66          13.11
      1822         5.6450         190.36         158.70          13.46
      1823         5.6470         155.89         158.74          12.16
      1824         5.6490         181.13         158.79          13.09
      1825         5.6510         176.76         158.83          12.96
      1826         5.6530         187.98         158.87          13.36
      1827         5.6550         163.83         158.91          12.47
      1828         5.6570         154.91         158.95          12.13
      1829         5.6590         153.15         159.00          12.07
      1830         5.6610         177.85         159.04          12.98
      1831         5.6630         170.29         159.08          12.71
      1832         5.6650         177.74         159.12          12.98
      1833         5.6670         167.82         159.16          12.62
      1834         5.6690         171.88         159.20          12.78
      1835         5.6710         175.46         159.24          12.93
      1836         5.6730         175.35         159.28          12.91
      1837         5.6750         157.68         159.32          12.24
      1838         5.6770         171.78         159.35          12.77
      1839         5.6790         164.04         159.39          12.49
      1840         5.6810         157.80         159.43          12.25
      1841         5.6830         166.33         159.47          12.58
      1842         5.6850         160.09         159.51          12.35
      1843         5.6870         185.22         159.54          13.26
      1844         5.6890         177.38         159.58          12.99
      1845         5.6910         156.43         159.62          12.20
      1846         5.6930         173.86         159.65          12.85
      1847         5.6950         175.03         159.69          12.91
      1848         5.6970         181.27         159.72          13.11
      1849         5.6990         179.63         159.76          13.07
      1850         5.7010         158.35         159.79          12.28
      1851         5.7030         166.86         159.83          12.59
      1852         5.7050         156.84         159.86          12.21
      1853         5.7070         156.26         159.90          12.19
      1854         5.7090         158.44         159.93          12.28
      1855         5.7110         170.96         159.96          12.76
      1856         5.7130         167.19         160.00          12.62
      1857         5.7150         180.72         160.03          13.12
      1858         5.7170         188.91         160.06          13.40
      1859         5.7190         168.09         160.10          12.65
      1860         5.7210         153.29         160.13          12.06
      1861         5.7230         160.30         160.16          12.35
      1862         5.7250         158.32         160.19          12.27
      1863         5.7270         177.38         160.22          12.98
      1864         5.7290         161.76         160.25          12.39
      1865         5.7310         159.86         160.28          12.34
      1866         5.7330         158.61         160.31          12.27
      1867         5.7350         173.17         160.34          12.84
      1868         5.7370         174.29         160.37          12.86
      1869         5.7390         184.53         160.40          13.24
      1870         5.7410         161.44         160.43          12.39
      1871         5.7430         169.87         160.46          12.71
      1872         5.7450         170.78         160.49          12.75
      1873         5.7470         177.31         160.52          12.99
      1874         5.7490         170.47         160.54          12.73
      1875         5.7510         159.47         160.57          12.32
      1876         5.7530         161.43         160.60          12.38
      1877         5.7550         161.83         160.63          12.41
      1878         5.7570         173.55         160.65          12.84
      1879         5.7590         165.39         160.68          12.54
      1880         5.7610         164.36         160.71          12.50
      1881         5.7630         169.73         160.73          12.70
      1882         5.7650         170.61         160.76          12.74
      1883         5.7670         159.31         160.78          12.28
      1884         5.7690         170.41         160.81          12.72
      1885         5.7710         168.25         160.83          12.65
      1886         5.7730         176.60         160.85          12.95
      1887         5.7750         160.67         160.88          12.36
      1888         5.7770         176.05         160.90          12.94
      1889         5.7790         163.93         160.93          12.49
      1890         5.7810         191.94         160.95          13.51
      1891         5.7830         182.64         160.97          13.18
      1892         5.7850         180.69         160.99          13.11
      1893         5.7870         151.58         161.02          11.99
      1894         5.7890         154.24         161.04          12.11
      1895         5.7910         163.89         161.06          12.49
      1896         5.7930         159.53         161.08          12.32
      1897         5.7950         168.43         161.10          12.66
      1898         5.7970         170.74         161.12          12.74
      1899         5.7990         156.28         161.14          12.18
      1900         5.8010         174.91         161.16          12.89
      1901         5.8030         162.92         161.18          12.45
      1902         5.8050         179.32         161.20          13.05
      1903         5.8070         166.07         161.22          12.56
      1904         5.8090         201.17         161.24          13.82
      1905         5.8110         187.18         161.26          13.35
      1906         5.8130         189.07         161.28          13.41
      1907         5.8150         184.54         161.30          13.24
      1908         5.8170         175.64         161.31          12.92
      1909         5.8190         140.14         161.33          11.52
      1910         5.8210         155.93         161.35          12.18
      1911         5.8230         154.19         161.37          12.10
      1912         5.8250         153.86         161.38          12.10
      1913         5.8270         163.69         161.40          12.47
      1914         5.8290         171.68         161.41          12.78
      1915         5.8310         163.69         161.43          12.48
      1916         5.8330         156.87         161.45          12.20
      1917         5.8350         171.10         161.46          12.75
      1918         5.8370         162.77         161.48          12.44
      1919         5.8390         163.62         161.49          12.47
      1920         5.8410         168.52         161.50          12.67
      1921         5.8430         166.33         161.52          12.58
      1922         5.8450         154.72         161.53          12.11
      1923         5.8470         178.26         161.54          13.00
      1924         5.8490         178.41         161.56          13.02
      1925         5.8510         166.81         161.57          12.60
      1926         5.8530         164.72         161.58          12.52
      1927         5.8550         168.70         161.60          12.67
      1928         5.8570         185.47         161.61          13.27
      1929         5.8590         173.28         161.62          12.83
      1930         5.8610         168.28         161.63          12.65
      1931         5.8630         174.43         161.64          12.89
      1932         5.8650         171.27         161.65          12.76
      1933         5.8670         195.86         161.66          13.64
      1934         5.8690         173.81         161.67          12.85
      1935         5.8710         174.04         161.68          12.87
      1936         5.8730         159.83         161.69          12.32
      1937         5.8750         153.80         161.70          12.10
      1938         5.8770         162.74         161.71          12.44
      1939         5.8790         166.01         161.72          12.56
      1940         5.8810         168.56         161.73          12.66
      1941         5.8830         159.59         161.74          12.31
      1942         5.8850         160.35         161.74          12.36
      1943         5.8870         164.34         161.75          12.50
      1944         5.8890         155.29         161.76          12.15
      1945         5.8910         174.02         161.76          12.86
      1946         5.8930         177.04         161.77          12.98
      1947         5.8950         163.50         161.78          12.48
      1948         5.8970         155.08         161.78          12.13
      1949         5.8990         161.93         161.79          12.41
      1950         5.9010         169.65         161.79          12.71
      1951         5.9030         181.76         161.80          13.15
      1952         5.9050         170.92         161.80          12.75
      1953         5.9070         171.36         161.81          12.76
      1954         5.9090         183.31         161.81          13.19
      1955         5.9110         179.57         161.82          13.07
      1956         5.9130         179.30         161.82          13.05
      1957         5.9150         186.96         161.82          13.34
      1958         5.9170         183.82         161.83          13.21
      1959         5.9190         157.99         161.83          12.24
      1960         5.9210         175.32         161.83          12.89
      1961         5.9230         181.22         161.84          13.12
      1962         5.9250         178.95         161.84          13.06
      1963         5.9270         155.11         161.84          12.14
      1964         5.9290         164.24         161.84          12.48
      1965         5.9310         164.34         161.84          12.50
      1966         5.9330         180.00         161.84          13.07
      1967         5.9350         172.38         161.84          12.80
      1968         5.9370         185.45         161.84          13.27
      1969         5.9390         175.99         161.84          12.94
      1970         5.9410         164.16         161.84          12.49
      1971         5.9430         149.76         161.84          11.92
      1972         5.9450         167.51         161.84          12.62
      1973         5.9470         164.63         161.84          12.51
      1974         5.9490         173.36         161.84          12.84
      1975         5.9510         181.62         161.84          13.15
      1976         5.9530         173.71         161.84          12.85
      1977         5.9550         178.92         161.83          13.05
      1978         5.9570         181.11         161.83          13.13
      1979         5.9590         176.90         161.83          12.98
      1980         5.9610         181.83         161.83          13.14
      1981         5.9630         186.02         161.82          13.30
      1982         5.9650         178.99         161.82          13.06
      1983         5.9670         185.28         161.82          13.26
      1984         5.9690         155.98         161.81          12.17
      1985         5.9710         149.37         161.81          11.92
      1986         5.9730         172.17         161.80          12.79
      1987         5.9750         178.55         161.80          13.04
      1988         5.9770         168.35         161.79          12.64
      1989         5.9790         143.73         161.79          11.67
      1990         5.9810         169.90         161.78          12.69
      1991         5.9830         156.95         161.77          12.20
      1992         5.9850         159.20         161.77          12.30
      1993         5.9870         183.87         161.76          13.21
      1994         5.9890         166.02         161.75          12.56
      1995         5.9910         155.13         161.75          12.15
      1996         5.9930         178.88         161.74          13.04
      1997         5.9950         173.91         161.73          12.87
      1998         5.9970         178.68         161.72          13.02
      1999         5.9990         180.85         161.71          13.12
      2000         6.0010         181.30         161.71          13.50
      2001         6.0030         182.49         161.70          13.57
      2002         6.0050         179.20         161.69          13.46
      2003         6.0070         197.25         161.68          14.09
      2004         6.0090         163.33         161.67          12.83
      2005         6.0110         152.72         161.66          12.46
      2006         6.0130         155.45         161.65          12.52
      2007         6.0150         164.51         161.64          12.88
      2008         6.0170         166.06         161.63          12.96
      2009         6.0190         154.15         161.62          12.53
      2010         6.0210         179.85         161.60          13.52
      2011         6.0230         189.24         161.59          13.83
      2012         6.0250         159.16         161.58          12.68
      2013         6.0270         176.77         161.57          13.41
      2014         6.0290         179.66         161.55          13.52
      2015         6.0310         163.18         161.54          12.87
      2016         6.0330         163.74         161.53          12.89
      2017         6.0350         163.02         161.52          12.87
      2018         6.0370         161.44         161.50          12.81
      2019         6.0390         179.56         161.49          13.51
      2020         6.0410         163.79         161.48          12.87
      2021         6.0430         154.50         161.46          12.50
      2022         6.0450         166.40         161.45          12.97
      2023         6.0470         164.67         161.43          12.90
      2024         6.0490         145.61         161.42          12.14
      2025         6.0510         165.30         161.40          12.89
      2026         6.0530         169.32         161.38          13.09
      2027         6.0550         166.07         161.37          12.97
      2028         6.0570         168.65         161.35          13.05
      2029         6.0590         179.38         161.34          13.52
      2030         6.0610         177.86         161.32          13.44
      2031         6.0630         164.81         161.30          12.92
      2032         6.0650         160.32         161.29          12.70
      2033         6.0670         156.18         161.27          12.60
      2034         6.0690         159.15         161.25          12.73
      2035         6.0710         171.17         161.23          13.19
      2036         6.0730         159.16         161.21          12.70
      2037         6.0750         166.86         161.20          13.00
      2038         6.0770         166.95         161.18          13.01
      2039         6.0790         160.92         161.16          12.76
      2040         6.0810         173.60         161.14          13.26
      2041         6.0830         184.42         161.12          13.70
      2042         6.0850         182.05         161.10          13.58
      2043         6.0870         170.91         161.08          13.13
      2044         6.0890         173.93         161.06          13.21
      2045         6.0910         176.44         161.04          13.36
      2046         6.0930         157.47         161.01          12.58
      2047         6.0950         152.88         160.99          12.41
      2048         6.0970         172.68         160.97          13.24
      2049         6.0990         178.37         160.95          13.44
      2050         6.1010         163.98         160.93          12.89
      2051         6.1030         156.15         160.91          12.55
      2052         6.1050         168.82         160.88          13.05
      2053         6.1070         168.31         160.86          13.05
      2054         6.1090         175.57         160.84          13.37
      2055         6.1110         169.79         160.82          13.14
      2056         6.1130         171.72         160.79          13.13
      2057         6.1150         158.65         160.77          12.63
      2058         6.1170         168.72         160.74          13.06
      2059         6.1190         176.33         160.72          13.37
      2060         6.1210         165.17         160.70          12.98
      2061         6.1230         157.77         160.67          12.63
      2062         6.1250         169.03         160.65          13.10
      2063         6.1270         169.34         160.62          13.15
      2064         6.1290         161.13         160.59          12.84
      2065         6.1310         178.44         160.57          13.49
      2066         6.1330         173.07         160.54          13.20
      2067         6.1350         172.51         160.52          13.20
      2068         6.1370         162.94         160.49          12.87
      2069         6.1390         168.84         160.46          13.08
      2070         6.1410         172.09         160.44          13.17
      2071         6.1430         148.23         160.41          12.22
      2072         6.1450         157.76         160.38          12.58
      2073         6.1470         152.33         160.35          12.39
      2074         6.1490         156.81         160.32          12.65
      2075         6.1510         164.71         160.30          12.93
      2076         6.1530         167.17         160.27          13.07
      2077         6.1550         168.03         160.24          13.10
      2078         6.1570         161.66         160.21          12.84
      2079         6.1590         162.52         160.18          12.83
      2080         6.1610         149.52         160.15          12.26
      2081         6.1630         154.46         160.12          12.50
      2082         6.1650         162.48         160.09          12.79
      2083         6.1670         169.38         160.06          13.08
      2084         6.1690         179.60         160.03          13.41
      2085         6.1710         185.71         160.00          13.68
      2086         6.1730         176.20         159.97          13.36
      2087         6.1750         164.32         159.94          12.92
      2088         6.1770         160.46         159.91          12.74
      2089         6.1790         156.87         159.88          12.57
      2090         6.1810         167.91         159.84          13.02
      2091         6.1830         177.83         159.81          13.42
      2092         6.1850         146.16         159.78          12.13
      2093         6.1870         137.64         159.75          11.75
      2094         6.1890         155.08         159.71          12.52
      2095         6.1910         145.73         159.68          12.10
      2096         6.1930         140.85         159.65          11.94
      2097         6.1950         165.53         159.61          12.94
      2098         6.1970         153.70         159.58          12.52
      2099         6.1990         165.94         159.54          12.97
      2100         6.2010         162.41         159.51          12.86
      2101         6.2030         162.81         159.48          12.87
      2102         6.2050         159.09         159.44          12.67
      2103         6.2070         155.54         159.41          12.46
      2104         6.2090         160.90         159.37          12.74
      2105         6.2110         170.85         159.34          13.12
      2106         6.2130         169.21         159.30          13.09
      2107         6.2150         170.37         159.26          13.12
      2108         6.2170         173.71         159.23          13.23
      2109         6.2190         164.20         159.19          12.86
      2110         6.2210         158.04         159.15          12.64
      2111         6.2230         153.16         159.12          12.42
      2112         6.2250         168.02         159.08          13.06
      2113         6.2270         169.58         159.04          13.11
      2114         6.2290         167.07         159.01          12.99
      2115         6.2310         158.56         158.97          12.67
      2116         6.2330         152.26         158.93          12.40
      2117         6.2350         168.37         158.89          13.14
      2118         6.2370         154.72         158.85          12.51
      2119         6.2390         141.75         158.81          11.95
      2120         6.2410         136.56         158.77          11.78
      2121         6.2430         142.78         158.74          12.03
      2122         6.2450         164.41         158.70          12.92
      2123         6.2470         147.43         158.66          12.23
      2124         6.2490         141.47         158.62          11.97
      2125         6.2510         142.18         158.58          12.02
      2126         6.2530         156.70         158.54          12.58
      2127         6.2550         153.16         158.50          12.51
      2128         6.2570         168.47         158.46          13.10
      2129         6.2590         175.86         158.41          13.38
      2130         6.2610         160.19         158.37          12.70
      2131         6.2630         131.95         158.33          11.50
      2132         6.2650         144.69         158.29          12.11
      2133         6.2670         163.30         158.25          12.90
      2134         6.2690         162.16         158.21          12.84
      2135         6.2710         157.35         158.16          12.64
      2136         6.2730         158.89         158.12          12.68
      2137         6.2750         147.02         158.08          12.20
      2138         6.2770         154.58         158.04          12.50
      2139         6.2790         140.17         157.99          11.92
      2140         6.2810         140.16         157.95          11.96
      2141         6.2830         156.68         157.91          12.56
      2142         6.2850         158.55         157.86          12.70
      2143         6.2870         164.08         157.82          12.87
      2144         6.2890         161.52         157.77          12.83
      2145         6.2910         158.70         157.73          12.68
      2146         6.2930         143.92         157.68          12.05
      2147         6.2950         150.55         157.64          12.33
      2148         6.2970         156.00         157.60          12.54
      2149         6.2990         168.76         157.55          13.06
      2150         6.3010         157.21         157.50          12.59
      2151         6.3030         151.91         157.46          12.35
      2152         6.3050         159.83         157.41          12.74
      2153         6.3070         164.32         157.37          12.93
      2154         6.3090         169.98         157.32          13.09
      2155         6.3110         164.75         157.27          12.89
      2156         6.3130         173.73         157.23          13.22
      2157         6.3150         175.11         157.18          13.28
      2158         6.3170         147.60         157.13          12.19
      2159         6.3190         170.67         157.09          13.15
      2160         6.3210         160.39         157.04          12.72
      2161         6.3230         148.73         156.99          12.24
      2162         6.3250         170.24         156.94          13.14
      2163         6.3270         152.97         156.89          12.45
      2164         6.3290         140.89         156.85          11.98
      2165         6.3310         144.17         156.80          12.12
      2166         6.3330         150.64         156.75          12.37
      2167         6.3350         143.01         156.70          12.04
      2168         6.3370         154.72         156.65          12.41
      2169         6.3390         162.15         156.60          12.76
      2170         6.3410         150.41         156.55          12.38
      2171         6.3430         146.96         156.50          12.18
      2172         6.3450         146.04         156.45          12.14
      2173         6.3470         156.99         156.40          12.64
      2174         6.3490         140.90         156.35          11.97
      2175         6.3510         137.77         156.30          11.86
      2176         6.3530         139.04         156.25          11.89
      2177         6.3550         167.71         156.20          13.00
      2178         6.3570         166.20         156.15          12.96
      2179         6.3590         144.92         156.10          12.16
      2180         6.3610         152.33         156.04          12.45
      2181         6.3630         161.28         155.99          12.79
      2182         6.3650         151.96         155.94          12.38
      2183         6.3670         147.47         155.89          12.18
      2184         6.3690         163.32         155.84          12.85
      2185         6.3710         157.20         155.78          12.61
      2186         6.3730         156.09         155.73          12.59
      2187         6.3750         154.88         155.68          12.51
      2188         6.3770         155.54         155.62          12.54
      2189         6.3790         155.59         155.57          12.57
      2190         6.3810         150.72         155.52          12.40
      2191         6.3830         159.07         155.46          12.72
      2192         6.3850         153.76         155.41          12.52
      2193         6.3870         145.58         155.36          12.12
      2194         6.3890         143.76         155.30          12.08
      2195         6.3910         141.66         155.25          11.98
      2196         6.3930         145.34         155.19          12.12
      2197         6.3950         149.57         155.14          12.34
      2198         6.3970         147.42         155.08          12.22
      2199         6.3990         157.00         155.03          12.58
      2200         6.4010         159.40         154.97          12.71
      2201         6.4030         152.85         154.92          12.39
      2202         6.4050         151.13         154.86          12.32
      2203         6.4070         159.75         154.80          12.64
      2204         6.4090         135.75         154.75          11.63
      2205         6.4110         162.62         155.66          12.78
      2206         6.4130         144.01         155.64          12.02
      2207         6.4150         154.30         155.62          12.53
      2208         6.4170         156.37         155.60          12.56
      2209         6.4190         160.50         155.59          12.71
      2210         6.4210         138.33         155.57          11.81
      2211         6.4230         123.74         155.56          11.17
      2212         6.4250         127.79         155.55          11.32
      2213         6.4270         144.14         155.54          12.09
      2214         6.4290         150.86         155.54          12.34
      2215         6.4310         161.82         155.54          12.73
      2216         6.4330         146.68         155.54          12.12
      2217         6.4350         133.54         155.54          11.62
      2218         6.4370         150.37         155.55          12.32
      2219         6.4390         158.82         155.57          12.68
      2220         6.4410         149.46         155.59          12.28
      2221         6.4430         145.03         155.61          12.14
      2222         6.4450         141.14         155.65          11.97
      2223         6.4470         143.60         155.68          12.03
      2224         6.4490         132.85         155.73          11.55
      2225         6.4510         155.89         155.78          12.56
      2226         6.4530         153.07         155.84          12.42
      2227         6.4550         157.19         155.92          12.57
      2228         6.4570         149.66         156.00          12.33
      2229         6.4590         158.27         156.10          12.68
      2230         6.4610         156.73         156.21          12.61
      2231         6.4630         156.16         156.33          12.50
      2232         6.4650         153.23         156.48          12.40
      2233         6.4670         148.52         156.64          12.29
      2234         6.4690         160.70         156.83          12.73
      2235         6.4710         153.93         157.04          12.43
      2236         6.4730         149.82         157.29          12.27
      2237         6.4750         137.59         157.57          11.77
      2238         6.4770         133.18         157.89          11.56
      2239         6.4790         133.37         158.26          11.57
      2240         6.4810         146.88         158.69          12.16
      2241         6.4830         157.91         159.18          12.65
      2242         6.4850         158.79         159.75          12.67
      2243         6.4870         149.37         160.42          12.29
      2244         6.4890         149.99         161.21          12.33
      2245         6.4910         153.02         162.13          12.45
      2246         6.4930         168.89         163.23          13.05
      2247         6.4950         163.59         164.55          12.83
      2248         6.4970         159.49         166.15          12.66
      2249         6.4990         171.17         168.10          13.09
      2250         6.5010         164.10         170.52          12.84
      2251         6.5030         157.20         173.56          12.62
      2252         6.5050         180.52         177.45          13.49
      2253         6.5070         187.44         182.51          13.76
      2254         6.5090         182.84         189.27          13.59
      2255         6.5110         185.23         198.56          13.69
      2256         6.5130         217.91         211.77          14.80
      2257         6.5150         257.25         231.39          16.16
      2258         6.5170         285.94         262.31          17.02
      2259         6.5190         359.09         316.81          19.00
      2260         6.5210         519.47         440.34          22.85
      2261         6.5230        1065.72         786.16          32.47
      2262         6.5250        2182.48        1591.13          46.74
      2263         6.5270        2862.71        2541.20          53.65
      2264         6.5290        2049.33        2142.72          44.87
      2265         6.5310        1005.20        1133.36          31.17
      2266         6.5330         526.90         573.60          22.76
      2267         6.5350         348.53         365.03          18.62
      2268         6.5370         262.88         285.23          16.23
      2269         6.5390         234.21         244.60          15.36
      2270         6.5410         211.05         219.91          14.59
      2271         6.5430         186.49         203.70          13.74
      2272         6.5450         173.84         192.50          13.29
      2273         6.5470         184.18         184.44          13.62
      2274         6.5490         155.70         178.46          12.54
      2275         6.5510         172.08         173.88          13.25
      2276         6.5530         173.72         170.31          13.28
      2277         6.5550         166.65         167.47          13.00
      2278         6.5570         150.55         165.16          12.35
      2279         6.5590         152.91         163.26          12.44
      2280         6.5610         136.71         161.67          11.80
      2281         6.5630         146.08         160.34          12.16
      2282         6.5650         153.50         159.19          12.47
      2283         6.5670         143.47         158.21          12.06
      2284         6.5690         136.03         157.35          11.73
      2285         6.5710         144.95         156.60          12.11
      2286         6.5730         145.47         155.94          12.13
      2287         6.5750         145.97         155.35          12.16
      2288         6.5770         144.51         154.82          12.04
      2289         6.5790         147.34         154.34          12.12
      2290         6.5810         157.42         153.91          12.62
      2291         6.5830         154.13         153.51          12.53
      2292         6.5850         158.09         153.15          12.63
      2293         6.5870         150.85         152.82          12.36
      2294         6.5890         137.02         152.51          11.81
      2295         6.5910         153.30         152.23          12.47
      2296         6.5930         149.48         151.96          12.32
      2297         6.5950         144.23         151.71          12.07
      2298         6.5970         152.47         151.48          12.39
      2299         6.5990         142.96         151.26          12.00
      2300         6.6010         146.87         151.05          12.20
      2301         6.6030         160.40         150.85          12.70
      2302         6.6050         147.66         150.66          12.19
      2303         6.6070         133.90         150.48          11.64
      2304         6.6090         146.09         150.31          12.16
      2305         6.6110         150.66         150.14          12.30
      2306         6.6130         145.37         149.99          12.09
      2307         6.6150         143.85         149.83          12.05
      2308         6.6170         140.67         149.68          11.93
      2309         6.6190         133.95         149.54          11.63
      2310         6.6210         125.39         149.40          11.28
      2311         6.6230         135.26         149.27          11.68
      2312         6.6250         132.53         149.14          11.59
      2313         6.6270         141.67         149.01          11.99
      2314         6.6290         133.65         148.88          11.63
      2315         6.6310         151.60         148.76          12.34
      2316         6.6330         156.90         148.64          12.60
      2317         6.6350         155.70         148.53          12.55
      2318         6.6370         141.29         148.41          11.97
      2319         6.6390         133.39         148.30          11.62
      2320         6.6410         143.99         148.19          12.06
      2321         6.6430         148.12         148.08          12.24
      2322         6.6450         142.66         147.02          11.99
      2323         6.6470         149.07         146.95          12.32
      2324         6.6490         150.96         146.87          12.37
      2325         6.6510         150.70         146.80          12.35
      2326         6.6530         150.34         146.73          12.32
      2327         6.6550         129.97         146.65          11.48
      2328         6.6570         126.71         146.58          11.33
      2329         6.6590         138.30         146.50          11.84
      2330         6.6610         135.67         146.43          11.69
      2331         6.6630         130.96         146.35          11.50
      2332         6.6650         134.68         146.28          11.68
      2333         6.6670         119.78         146.21          11.01
      2334         6.6690         137.77         146.13          11.72
      2335         6.6710         127.03         146.06          11.28
      2336         6.6730         135.48         145.98          11.67
      2337         6.6750         138.88         145.91          11.86
      2338         6.6770         133.42         145.83          11.61
      2339         6.6790         146.93         145.76          12.17
      2340         6.6810         152.87         145.68          12.42
      2341         6.6830         142.87         145.61          12.02
      2342         6.6850         129.38         145.53          11.49
      2343         6.6870         143.03         145.45          12.02
      2344         6.6890         139.55         145.38          11.87
      2345         6.6910         133.09         145.30          11.59
      2346         6.6930         145.48         145.23          12.07
      2347         6.6950         135.75         145.15          11.72
      2348         6.6970         148.16         145.07          12.20
      2349         6.6990         143.82         145.00          12.04
      2350         6.7010         140.43         144.92          11.94
      2351         6.7030         144.74         144.85          12.09
      2352         6.7050         146.49         144.77          12.20
      2353         6.7070         149.11         144.69          12.28
      2354         6.7090         148.10         144.62          12.16
      2355         6.7110         150.28         144.54          12.28
      2356         6.7130         152.88         144.46          12.44
      2357         6.7150         146.88         144.38          12.14
      2358         6.7170         150.76         144.31          12.28
      2359         6.7190         149.29         144.23          12.26
      2360         6.7210         142.96         144.15          11.99
      2361         6.7230         129.66         144.08          11.45
      2362         6.7250         135.84         144.00          11.69
      2363         6.7270         132.33         143.92          11.53
      2364         6.7290         142.55         143.84          11.97
      2365         6.7310         143.50         143.77          12.04
      2366         6.7330         140.30         143.69          11.87
      2367         6.7350         141.79         143.61          11.98
      2368         6.7370         138.63         143.53          11.86
      2369         6.7390         139.12         143.45          11.89
      2370         6.7410         120.12         143.38          11.03
      2371         6.7430         129.32         143.30          11.42
      2372         6.7450         129.32         143.22          11.41
      2373         6.7470         126.75         143.14          11.31
      2374         6.7490         130.04         143.06          11.46
      2375         6.7510         136.22         142.98          11.67
      2376         6.7530         138.86         142.91          11.82
      2377         6.7550         115.30         142.83          10.76
      2378         6.7570         120.83         142.75          11.01
      2379         6.7590         144.22         142.67          12.13
      2380         6.7610         140.36         142.59          11.95
      2381         6.7630         140.50         142.51          11.94
      2382         6.7650         139.64         142.43          11.92
      2383         6.7670         149.79         142.35          12.29
      2384         6.7690         148.46         142.27          12.19
      2385         6.7710         139.90         142.20          11.80
      2386         6.7730         144.39         142.12          12.08
      2387         6.7750         145.58         142.04          12.08
      2388         6.7770         149.38         141.96          12.27
      2389         6.7790         149.31         141.88          12.31
      2390         6.7810         164.30         141.80          12.92
      2391         6.7830         186.38         141.72          13.73
      2392         6.7850         181.71         141.64          13.50
      2393         6.7870         160.17         141.56          12.67
      2394         6.7890         148.55         141.48          12.24
      2395         6.7910         140.87         141.40          11.94
      2396         6.7930         131.41         141.32          11.52
      2397         6.7950         136.18         141.24          11.74
      2398         6.7970         135.04         141.16          11.72
      2399         6.7990         140.71         141.08          11.91
      2400         6.8010         130.66         141.00          11.47
      2401         6.8030         134.55         140.91          11.61
      2402         6.8050         126.14         140.84          11.26
      2403         6.8070         129.25         140.75          11.44
      2404         6.8090         140.90         140.67          11.97
      2405         6.8110         133.97         140.59          11.68
      2406         6.8130         137.63         140.51          11.79
      2407         6.8150         126.70         140.43          11.31
      2408         6.8170         119.44         140.35          10.97
      2409         6.8190         121.21         140.27          11.05
      2410         6.8210         132.88         140.19          11.56
      2411         6.8230         133.75         140.11          11.60
      2412         6.8250         135.02         140.03          11.67
      2413         6.8270         145.64         139.95          12.13
      2414         6.8290         140.59         139.86          11.96
      2415         6.8310         131.82         139.78          11.60
      2416         6.8330         136.39         139.70          11.74
      2417         6.8350         130.05         139.62          11.45
      2418         6.8370         130.40         139.54          11.43
      2419         6.8390         122.60         139.46          11.10
      2420         6.8410         128.12         139.37          11.37
      2421         6.8430         112.89         139.29          10.64
      2422         6.8450         122.00         139.21          11.08
      2423         6.8470         127.34         139.13          11.30
      2424         6.8490         138.10         139.05          11.77
      2425         6.8510         147.50         138.96          12.23
      2426         6.8530         138.43         138.88          11.82
      2427         6.8550         124.38         138.80          11.24
      2428         6.8570         120.11         138.72          10.99
      2429         6.8590         122.56         138.64          11.11
      2430         6.8610         125.38         138.55          11.20
      2431         6.8630         121.13         138.47          10.98
      2432         6.8650         138.01         138.39          11.76
      2433         6.8670         128.25         138.31          11.38
      2434         6.8690         130.81         138.23          11.47
      2435         6.8710         133.13         138.14          11.55
      2436         6.8730         119.37         138.06          10.93
      2437         6.8750         121.72         137.98          11.03
      2438         6.8770         130.15         137.90          11.47
      2439         6.8790         125.53         137.81          11.29
      2440         6.8810         121.70         137.73          11.07
      2441         6.8830         127.73         137.65          11.39
      2442         6.8850         126.40         137.57          11.31
      2443         6.8870         117.52         137.48          10.90
      2444         6.8890         145.09         137.40          12.08
      2445         6.8910         144.43         137.32          12.06
      2446         6.8930         137.73         137.23          11.79
      2447         6.8950         137.63         137.15          11.75
      2448         6.8970         138.41         137.07          11.80
      2449         6.8990         127.16         136.99          11.34
      2450         6.9010         136.64         136.90          11.72
      2451         6.9030         135.75         136.82          11.68
      2452         6.9050         116.06         136.74          10.79
      2453         6.9070         123.80         136.65          11.11
      2454         6.9090         131.15         136.57          11.47
      2455         6.9110         135.29         136.49          11.61
      2456         6.9130         133.16         136.40          11.56
      2457         6.9150         125.16         136.32          11.21
      2458         6.9170         120.01         136.24          11.00
      2459         6.9190         118.92         136.15          10.94
      2460         6.9210         127.26         136.07          11.35
      2461         6.9230         129.66         135.99          11.43
      2462         6.9250         133.94         135.90          11.62
      2463         6.9270         118.76         135.82          10.97
      2464         6.9290         134.69         135.74          11.66
      2465         6.9310         129.01         135.65          11.37
      2466         6.9330         124.80         135.57          11.19
      2467         6.9350         137.48         135.48          11.77
      2468         6.9370         137.86         135.40          11.79
      2469         6.9390         136.55         135.32          11.76
      2470         6.9410         135.00         135.23          11.65
      2471         6.9430         124.19         135.15          11.19
      2472         6.9450         122.56         135.07          11.15
      2473         6.9470         118.14         134.98          10.92
      2474         6.9490         116.27         134.90          10.82
      2475         6.9510         116.16         134.81          10.84
      2476         6.9530         118.97         134.73          10.93
      2477         6.9550         121.21         134.65          11.06
      2478         6.9570         133.86         134.56          11.54
      2479         6.9590         118.50         134.48          10.89
      2480         6.9610         124.38         134.39          11.18
      2481         6.9630         136.35         134.31          11.70
      2482         6.9650         118.69         134.23          10.89
      2483         6.9670         130.31         134.14          11.45
      2484         6.9690         131.91         134.06          11.50
      2485         6.9710         115.04         133.97          10.72
      2486         6.9730         122.45         133.89          11.09
      2487         6.9750         127.91         133.80          11.36
      2488         6.9770         131.11         133.72          11.47
      2489         6.9790         132.07         133.64          11.55
      2490         6.9810         117.51         133.55          10.90
      2491         6.9830         131.71         133.47          11.54
      2492         6.9850         136.76         133.38          11.74
      2493         6.9870         129.30         133.30          11.38
      2494         6.9890         129.16         133.21          11.38
      2495         6.9910         132.49         133.13          11.48
      2496         6.9930         124.12         133.04          11.15
      2497         6.9950         119.55         132.96          10.96
      2498         6.9970         123.92         132.88          11.20
      2499         6.9990         120.96         132.79          11.04
      2500         7.0010         126.64         132.71          11.30
      2501         7.0030         132.68         132.62          11.60
      2502         7.0050         128.70         132.54          11.39
      2503         7.0070         120.41         132.45          11.03
      2504         7.0090         122.38         132.37          11.10
      2505         7.0110         124.97         132.29          11.26
      2506         7.0130         129.54         132.20          11.42
      2507         7.0150         116.52         132.12          10.83
      2508         7.0170         122.46         132.03          11.09
      2509         7.0190         117.20         131.95          10.85
      2510         7.0210         116.67         131.86          10.85
      2511         7.0230         134.27         131.78          11.59
      2512         7.0250         144.43         131.69          12.03
      2513         7.0270         129.34         131.61          11.43
      2514         7.0290         139.08         131.52          11.78
      2515         7.0310         118.38         131.44          10.86
      2516         7.0330         124.61         131.35          11.19
      2517         7.0350         123.37         131.27          11.12
      2518         7.0370         129.72         131.19          11.46
      2519         7.0390         123.60         131.10          11.17
      2520         7.0410         123.54         131.02          11.17
      2521         7.0430         120.37         130.93          11.01
      2522         7.0450         121.85         130.85          11.07
      2523         7.0470         132.19         130.76          11.53
      2524         7.0490         132.20         130.68          11.52
      2525         7.0510         124.83         130.59          11.21
      2526         7.0530         120.32         130.51          11.02
      2527         7.0550         132.54         130.42          11.58
      2528         7.0570         135.75         130.34          11.69
      2529         7.0590         137.55         130.26          11.80
      2530         7.0610         132.48         130.17          11.53
      2531         7.0630         121.53         130.09          11.04
      2532         7.0650         125.46         130.00          11.24
      2533         7.0670         136.08         129.92          11.69
      2534         7.0690         135.93         129.83          11.68
      2535         7.0710         146.30         129.75          12.11
      2536         7.0730         148.99         129.66          12.26
      2537         7.0750         132.93         129.58          11.64
      2538         7.0770         144.67         129.49          12.11
      2539         7.0790         175.76         129.41          13.25
      2540         7.0810         181.08         129.32          13.47
      2541         7.0830         173.81         129.24          13.19
      2542         7.0850         158.32         129.15          12.61
      2543         7.0870         143.77         129.07          12.01
      2544         7.0890         134.60         128.99          11.64
      2545         7.0910         149.43         128.90          12.29
      2546         7.0930         158.77         128.82          12.67
      2547         7.0950         143.92         128.73          12.02
      2548         7.0970         112.88         128.65          10.65
      2549         7.0990         125.98         128.56          11.23
      2550         7.1010         133.09         128.48          11.59
      2551         7.1030         145.45         128.39          12.05
      2552         7.1050         135.94         128.31          11.68
      2553         7.1070         127.56         128.22          11.40
      2554         7.1090         117.57         128.14          10.91
      2555         7.1110         134.33         128.05          11.57
      2556         7.1130         136.70         127.97          11.73
      2557         7.1150         134.44         127.89          11.66
      2558         7.1170         125.72         127.80          11.26
      2559         7.1190         124.42         127.72          11.21
      2560         7.1210         123.01         127.63          11.09
      2561         7.1230         126.91         127.55          11.26
      2562         7.1250         115.46         127.46          10.71
      2563         7.1270         103.44         127.38          10.11
      2564         7.1290         116.92         127.29          10.83
      2565         7.1310         139.37         127.21          11.83
      2566         7.1330         136.41         127.13          11.73
      2567         7.1350         149.36         127.04          12.23
      2568         7.1370         140.30         126.96          11.85
      2569         7.1390         140.88         126.87          11.89
      2570         7.1410         133.50         126.79          11.64
      2571         7.1430         142.05         126.71          11.91
      2572         7.1450         141.78         126.62          11.94
      2573         7.1470         125.43         126.54          11.25
      2574         7.1490         119.74         126.45          11.02
      2575         7.1510         130.25         126.37          11.49
      2576         7.1530         141.70         126.28          11.92
      2577         7.1550         126.36         126.20          11.28
      2578         7.1570         134.36         126.11          11.60
      2579         7.1590         132.58         126.03          11.49
      2580         7.1610         127.95         125.95          11.36
      2581         7.1630         130.97         125.86          11.47
      2582         7.1650         122.39         125.78          11.09
      2583         7.1670         113.49         125.69          10.75
      2584         7.1690         120.54         125.61          11.03
      2585         7.1710         136.09         125.53          11.66
      2586         7.1730         143.95         125.44          12.03
      2587         7.1750         124.43         125.36          11.18
      2588         7.1770         121.59         125.28          11.05
      2589         7.1790         124.36         125.19          11.18
      2590         7.1810         113.30         125.11          10.67
      2591         7.1830         124.98         125.02          11.25
      2592         7.1850         122.49         124.94          11.14
      2593         7.1870         116.20         124.86          10.83
      2594         7.1890         132.37         124.77          11.56
      2595         7.1910         139.04         124.69          11.84
      2596         7.1930         130.64         124.61          11.50
      2597         7.1950         139.10         124.52          11.83
      2598         7.1970         124.80         124.44          11.19
      2599         7.1990         129.65         124.35          11.50
      2600         7.2010         120.49         124.27          11.06
      2601         7.2030         128.03         124.19          11.35
      2602         7.2050         132.25         124.10          11.55
      2603         7.2070         117.41         124.02          10.86
      2604         7.2090         122.96         123.94          11.11
      2605         7.2110         115.96         123.85          10.79
      2606         7.2130         130.21         123.77          11.38
      2607         7.2150         137.95         123.69          11.78
      2608         7.2170         132.49         123.60          11.51
      2609         7.2190         137.78         123.52          11.79
      2610         7.2210         121.74         123.44          11.07
      2611         7.2230         126.86         123.35          11.27
      2612         7.2250         125.45         123.27          11.22
      2613         7.2270         126.04         123.19          11.26
      2614         7.2290         126.98         123.10          11.33
      2615         7.2310         124.43         123.02          11.21
      2616         7.2330         125.40         122.94          11.27
      2617         7.2350         120.15         122.86          11.00
      2618         7.2370         134.12         122.77          11.59
      2619         7.2390         127.45         122.69          11.34
      2620         7.2410         119.37         122.61          10.97
      2621         7.2430         126.16         122.52          11.27
      2622         7.2450         112.92         122.44          10.64
      2623         7.2470         117.37         122.36          10.81
      2624         7.2490         124.23         122.28          11.17
      2625         7.2510         118.94         122.19          10.94
      2626         7.2530         122.02         122.11          11.07
      2627         7.2550         123.68         122.03          11.16
      2628         7.2570         134.13         121.94          11.59
      2629         7.2590         125.44         121.86          11.21
      2630         7.2610         123.36         121.78          11.14
      2631         7.2630         123.12         121.70          11.11
      2632         7.2650         119.49         121.61          10.96
      2633         7.2670         107.65         121.53          10.43
      2634         7.2690         114.78         121.45          10.73
      2635         7.2710         109.22         121.37          10.50
      2636         7.2730         118.03         121.29          10.90
      2637         7.2750         121.13         121.20          11.05
      2638         7.2770         122.78         121.12          11.12
      2639         7.2790         118.04         121.04          10.91
      2640         7.2810         124.11         120.96          11.18
      2641         7.2830         137.58         120.87          11.77
      2642         7.2850         124.82         120.79          11.21
      2643         7.2870         125.52         120.71          11.22
      2644         7.2890         119.21         120.63          10.94
      2645         7.2910         115.75         120.55          10.82
      2646         7.2930         109.93         120.46          10.55
      2647         7.2950         112.70         120.38          10.66
      2648         7.2970         130.68         120.30          11.51
      2649         7.2990         129.41         120.22          11.45
      2650         7.3010         123.89         120.14          11.21
      2651         7.3030         128.61         120.06          11.42
      2652         7.3050         114.07         119.97          10.74
      2653         7.3070         117.73         119.89          10.93
      2654         7.3090         131.46         119.81          11.54
      2655         7.3110         127.11         119.73          11.33
      2656         7.3130         117.36         119.65          10.84
      2657         7.3150         115.83         119.57          10.80
      2658         7.3170         120.04         119.49          11.01
      2659         7.3190         111.70         119.41          10.60
      2660         7.3210         104.28         119.32          10.20
      2661         7.3230         114.41         119.24          10.67
      2662         7.3250         121.43         119.16          11.05
      2663         7.3270         115.74         119.08          10.76
      2664         7.3290         123.17         119.00          11.07
      2665         7.3310         119.29         118.92          10.93
      2666         7.3330         129.19         118.84          11.39
      2667         7.3350         120.07         118.76          11.01
      2668         7.3370         123.84         118.68          11.16
      2669         7.3390         123.84         118.60          11.18
      2670         7.3410         119.61         118.52          11.00
      2671         7.3430         115.76         118.44          10.80
      2672         7.3450         120.21         118.36          10.97
      2673         7.3470         112.42         118.28          10.61
      2674         7.3490         109.90         118.19          10.47
      2675         7.3510         125.93         118.11          11.24
      2676         7.3530         120.77         118.03          11.03
      2677         7.3550         117.63         117.95          10.90
      2678         7.3570         107.77         117.87          10.42
      2679         7.3590         114.12         117.79          10.71
      2680         7.3610         119.77         117.71          10.95
      2681         7.3630         134.47         117.63          11.67
      2682         7.3650         115.40         117.55          10.80
      2683         7.3670         112.02         117.47          10.65
      2684         7.3690         110.42         117.39          10.61
      2685         7.3710         120.85         117.32          11.03
      2686         7.3730         125.04         117.24          11.26
      2687         7.3750         122.97         117.16          11.13
      2688         7.3770         115.74         117.08          10.76
      2689         7.3790         123.23         117.00          11.14
      2690         7.3810         123.10         116.92          11.12
      2691         7.3830         111.51         116.84          10.60
      2692         7.3850         121.17         116.76          11.06
      2693         7.3870         126.48         116.68          11.30
      2694         7.3890         129.59         116.60          11.41
      2695         7.3910         123.24         116.52          11.14
      2696         7.3930         116.49         116.44          10.83
      2697         7.3950         121.58         116.36          11.03
      2698         7.3970         117.82         116.28          10.88
      2699         7.3990         123.80         116.21          11.17
      2700         7.4010         126.22         116.13          11.23
      2701         7.4030         105.28         116.05          10.23
      2702         7.4050         105.63         115.97          10.27
      2703         7.4070         107.97         115.89          10.43
      2704         7.4090         125.52         115.81          11.27
      2705         7.4110         121.42         115.73          11.04
      2706         7.4130         108.92         115.65          10.46
      2707         7.4150         120.51         115.58          11.02
      2708         7.4170         124.10         115.50          11.20
      2709         7.4190         108.24         115.42          10.48
      2710         7.4210         131.05         115.34          11.50
      2711         7.4230         130.52         115.26          11.47
      2712         7.4250         120.80         115.19          11.02
      2713         7.4270         125.27         120.07          11.26
      2714         7.4290         122.25         120.18          11.10
      2715         7.4310         120.52         120.29          11.03
      2716         7.4330         121.14         120.42          11.06
      2717         7.4350         116.78         120.56          10.87
      2718         7.4370         132.35         120.71          11.54
      2719         7.4390         140.22         120.87          11.86
      2720         7.4410         125.42         121.05          11.21
      2721         7.4430         118.16         121.25          10.86
      2722         7.4450         122.48         121.46          11.13
      2723         7.4470         133.38         121.70          11.56
      2724         7.4490         129.43         121.95          11.41
      2725         7.4510         120.27         122.23          11.03
      2726         7.4530         129.48         122.53          11.45
      2727         7.4550         140.75         122.86          11.91
      2728         7.4570         132.78         123.22          11.55
      2729         7.4590         148.06         123.62          12.27
      2730         7.4610         164.77         124.05          12.92
      2731         7.4630         184.79         124.52          13.68
      2732         7.4650         201.55         125.04          14.31
      2733         7.4670         199.23         125.61          14.13
      2734         7.4690         191.29         126.23          13.81
      2735         7.4710         165.30         126.92          12.82
      2736         7.4730         136.84         127.68          11.68
      2737         7.4750         140.70         128.51          11.87
      2738         7.4770         149.47         129.44          12.25
      2739         7.4790         144.63         130.47          12.06
      2740         7.4810         148.13         131.62          12.17
      2741         7.4830         143.28         132.90          11.97
      2742         7.4850         154.27         134.34          12.49
      2743         7.4870         136.84         135.95          11.72
      2744         7.4890         131.44         137.77          11.43
      2745         7.4910         159.83         139.84          12.75
      2746         7.4930         155.00         142.19          12.52
      2747         7.4950         142.19         144.88          11.99
      2748         7.4970         151.87         147.98          12.40
      2749         7.4990         160.02         151.57          12.69
      2750         7.5010         156.75         155.75          12.57
      2751         7.5030         159.51         160.66          12.69
      2752         7.5050         157.76         166.48          12.59
      2753         7.5070         154.41         173.45          12.47
      2754         7.5090         157.49         181.87          12.57
      2755         7.5110         186.66         192.18          13.71
      2756         7.5130         210.28         204.97          14.62
      2757         7.5150         226.61         221.10          15.15
      2758         7.5170         217.24         241.85          14.84
      2759         7.5190         227.44         269.11          15.15
      2760         7.5210         275.10         305.88          16.69
      2761         7.5230         319.42         357.09          18.02
      2762         7.5250         367.11         431.31          19.30
      2763         7.5270         441.41         544.29          21.13
      2764         7.5290         622.13         728.30          25.11
      2765         7.5310         984.60        1070.77          31.64
      2766         7.5330        1925.14        1896.52          43.75
      2767         7.5350        4561.30        4157.53          67.43
      2768         7.5370        8852.19        8736.83          94.55
      2769         7.5390       10161.10       11203.50         100.13
      2770         7.5410        6385.11        6772.10          78.30
      2771         7.5430        2807.35        3037.18          51.17
      2772         7.5450        1302.76        1480.22          35.54
      2773         7.5470         797.12         909.36          27.99
      2774         7.5490         567.27         645.44          23.72
      2775         7.5510         432.94         494.15          20.76
      2776         7.5530         371.17         398.41          19.22
      2777         7.5550         316.23         334.20          17.76
      2778         7.5570         266.85         289.10          16.33
      2779         7.5590         238.68         256.27          15.44
      2780         7.5610         223.95         231.63          14.99
      2781         7.5630         212.08         212.68          14.59
      2782         7.5650         206.65         197.79          14.41
      2783         7.5670         183.99         185.89          13.57
      2784         7.5690         169.65         176.21          13.04
      2785         7.5710         184.24         168.25          13.61
      2786         7.5730         178.82         161.60          13.37
      2787         7.5750         160.05         156.01          12.64
      2788         7.5770         151.20         151.24          12.29
      2789         7.5790         155.51         147.16          12.47
      2790         7.5810         157.72         143.62          12.62
      2791         7.5830         160.69         140.54          12.72
      2792         7.5850         145.68         137.84          12.09
      2793         7.5870         138.05         135.45          11.77
      2794         7.5890         136.25         133.34          11.71
      2795         7.5910         133.43         131.45          11.60
      2796         7.5930         135.12         129.76          11.63
      2797         7.5950         136.95         128.24          11.70
      2798         7.5970         131.03         126.86          11.42
      2799         7.5990         122.84         125.62          11.05
      2800         7.6010         119.26         124.48          10.91
      2801         7.6030         114.31         123.44          10.73
      2802         7.6050         126.74         122.49          11.31
      2803         7.6070         130.06         121.61          11.42
      2804         7.6090         128.67         120.80          11.40
      2805         7.6110         133.84         120.05          11.61
      2806         7.6130         130.12         119.35          11.44
      2807         7.6150         117.51         118.71          10.89
      2808         7.6170         115.79         118.10          10.82
      2809         7.6190         112.30         117.54          10.64
      2810         7.6210          96.56         117.01           9.87
      2811         7.6230         110.50         116.51          10.50
      2812         7.6250         119.05         116.05          10.90
      2813         7.6270         117.80         115.61          10.87
      2814         7.6290         125.73         115.19          11.27
      2815         7.6310         119.76         114.80          11.00
      2816         7.6330         112.39         114.43          10.65
      2817         7.6350         116.23         114.07          10.82
      2818         7.6370         104.93         113.73          10.26
      2819         7.6390         103.75         113.41          10.16
      2820         7.6410         117.13         113.11          10.80
      2821         7.6430         126.58         112.81          11.31
      2822         7.6450         110.24         112.53          10.53
      2823         7.6470         107.14         112.26          10.37
      2824         7.6490          95.88         112.01           9.84
      2825         7.6510          96.76         111.76           9.87
      2826         7.6530         106.10         106.79          10.29
      2827         7.6550         108.46         106.72          10.45
      2828         7.6570         101.93         106.66          10.12
      2829         7.6590         110.18         106.59          10.51
      2830         7.6610         114.80         106.52          10.72
      2831         7.6630          98.63         106.45           9.91
      2832         7.6650         106.91         106.38          10.29
      2833         7.6670         103.17         106.31          10.12
      2834         7.6690         106.74         106.25          10.41
      2835         7.6710         116.83         106.18          10.91
      2836         7.6730         112.14         106.11          10.66
      2837         7.6750         104.95         106.04          10.30
      2838         7.6770         114.01         105.97          10.71
      2839         7.6790         119.86         105.91          10.99
      2840         7.6810         127.24         105.84          11.35
      2841         7.6830         130.69         105.77          11.45
      2842         7.6850         109.68         105.70          10.47
      2843         7.6870          96.99         105.64           9.88
      2844         7.6890          99.52         105.57          10.02
      2845         7.6910         115.35         105.50          10.73
      2846         7.6930         113.91         105.44          10.67
      2847         7.6950         107.70         105.37          10.39
      2848         7.6970         101.24         105.30          10.09
      2849         7.6990         101.84         105.24          10.13
      2850         7.7010         112.01         105.17          10.63
      2851         7.7030         107.59         105.10          10.37
      2852         7.7050          95.48         105.04           9.79
      2853         7.7070          98.63         104.97           9.95
      2854         7.7090         103.22         104.90          10.19
      2855         7.7110         103.30         104.84          10.20
      2856         7.7130         100.53         104.77          10.05
      2857         7.7150         110.55         104.71          10.56
      2858         7.7170         118.02         104.64          10.87
      2859         7.7190         117.69         104.57          10.86
      2860         7.7210         104.35         104.51          10.22
      2861         7.7230          99.14         104.44           9.96
      2862         7.7250         104.78         104.38          10.24
      2863         7.7270         111.84         104.31          10.60
      2864         7.7290         114.01         104.25          10.72
      2865         7.7310         110.76         104.18          10.58
      2866         7.7330         119.84         104.11          11.00
      2867         7.7350         109.80         104.05          10.52
      2868         7.7370          98.04         103.99           9.95
      2869         7.7390         108.29         103.92          10.43
      2870         7.7410         113.34         103.86          10.68
      2871         7.7430         101.26         103.79          10.10
      2872         7.7450          95.46         103.73           9.79
      2873         7.7470         106.84         103.66          10.35
      2874         7.7490         106.46         103.60          10.33
      2875         7.7510         105.26         103.53          10.25
      2876         7.7530         106.56         103.47          10.31
      2877         7.7550         105.89         103.40          10.26
      2878         7.7570         115.07         103.34          10.77
      2879         7.7590         111.22         103.28          10.59
      2880         7.7610          93.57         103.21           9.70
      2881         7.7630          86.76         103.15           9.33
      2882         7.7650         103.97         103.09          10.23
      2883         7.7670         109.76         103.02          10.53
      2884         7.7690         109.94         102.96          10.55
      2885         7.7710          98.31         102.90           9.94
      2886         7.7730         104.75         102.83          10.27
      2887         7.7750         104.03         102.77          10.26
      2888         7.7770          96.75         102.71           9.89
      2889         7.7790         105.69         102.64          10.31
      2890         7.7810         108.40         102.58          10.43
      2891         7.7830          98.76         102.52           9.96
      2892         7.7850         104.88         102.46          10.30
      2893         7.7870          99.51         102.39          10.03
      2894         7.7890         109.13         102.33          10.48
      2895         7.7910         110.17         102.27          10.56
      2896         7.7930         109.24         102.21          10.48
      2897         7.7950         105.27         102.14          10.31
      2898         7.7970         107.45         102.08          10.41
      2899         7.7990         115.13         102.02          10.80
      2900         7.8010         105.04         101.96          10.32
      2901         7.8030         115.26         101.90          10.79
      2902         7.8050          95.86         101.83           9.83
      2903         7.8070         111.52         101.77          10.55
      2904         7.8090         102.81         101.71          10.15
      2905         7.8110          99.85         101.65          10.05
      2906         7.8130          94.78         101.59           9.75
      2907         7.8150          90.74         101.53           9.54
      2908         7.8170         104.44         101.47          10.24
      2909         7.8190         100.86         101.41          10.10
      2910         7.8210         105.14         101.35          10.31
      2911         7.8230         109.17         101.29          10.52
      2912         7.8250         109.61         101.22          10.47
      2913         7.8270         105.11         101.16          10.24
      2914         7.8290         107.06         101.10          10.38
      2915         7.8310         111.25         101.04          10.58
      2916         7.8330         102.77         100.98          10.17
      2917         7.8350         109.85         100.92          10.45
      2918         7.8370         103.01         100.86          10.13
      2919         7.8390         115.97         100.80          10.81
      2920         7.8410         103.25         100.74          10.18
      2921         7.8430          88.85         100.68           9.44
      2922         7.8450          99.30         100.62           9.93
      2923         7.8470          92.52         100.56           9.60
      2924         7.8490          95.30         100.50           9.78
      2925         7.8510         100.80         100.44          10.06
      2926         7.8530         103.18         100.39          10.13
      2927         7.8550          98.40         100.33           9.90
      2928         7.8570          90.58         100.27           9.59
      2929         7.8590          96.46         100.21           9.86
      2930         7.8610         110.19         100.15          10.53
      2931         7.8630          94.55         100.09           9.75
      2932         7.8650          96.31         100.03           9.85
      2933         7.8670          91.07          99.97           9.57
      2934         7.8690          92.98          99.92           9.69
      2935         7.8710          97.92          99.86           9.98
      2936         7.8730         108.08          99.80          10.47
      2937         7.8750          91.46          99.74           9.63
      2938         7.8770          98.25          99.68           9.91
      2939         7.8790          84.95          99.62           9.23
      2940         7.8810          84.07          99.57           9.23
      2941         7.8830          96.92          99.51           9.84
      2942         7.8850          88.91          99.45           9.42
      2943         7.8870          95.55          99.39           9.83
      2944         7.8890          96.78          99.34           9.88
      2945         7.8910          97.96          99.28           9.92
      2946         7.8930         106.81          99.22          10.35
      2947         7.8950         110.10          99.17          10.53
      2948         7.8970         111.28          99.11          10.57
      2949         7.8990          92.92          99.05           9.65
      2950         7.9010          91.61          98.99           9.59
      2951         7.9030          91.07          98.94           9.58
      2952         7.9050          90.11          98.88           9.48
      2953         7.9070          94.11          98.82           9.68
      2954         7.9090         103.16          98.77          10.21
      2955         7.9110         108.48          98.71          10.48
      2956         7.9130         107.80          98.66          10.42
      2957         7.9150          99.99          98.60          10.02
      2958         7.9170         102.74          98.54          10.12
      2959         7.9190          99.26          98.49           9.96
      2960         7.9210          98.04          98.43           9.95
      2961         7.9230          94.15          98.38           9.77
      2962         7.9250          99.02          98.32           9.97
      2963         7.9270          96.15          98.26           9.82
      2964         7.9290          89.88          98.21           9.51
      2965         7.9310          94.36          98.15           9.78
      2966         7.9330         110.93          98.10          10.50
      2967         7.9350          94.16          98.04           9.66
      2968         7.9370         100.05          97.99          10.05
      2969         7.9390          93.25          97.93           9.65
      2970         7.9410          89.46          97.88           9.48
      2971         7.9430         104.93          97.82          10.25
      2972         7.9450         116.23          97.77          10.82
      2973         7.9470         109.62          97.72          10.46
      2974         7.9490          94.85          97.66           9.73
      2975         7.9510          99.55          97.61          10.02
      2976         7.9530         104.04          97.55          10.25
      2977         7.9550         114.79          97.50          10.77
      2978         7.9570         103.57          97.44          10.21
      2979         7.9590          87.42          97.39           9.40
      2980         7.9610          92.87          97.34           9.66
      2981         7.9630          94.63          97.28           9.76
      2982         7.9650          87.22          97.23           9.38
      2983         7.9670          97.37          97.18           9.92
      2984         7.9690          99.50          97.12          10.03
      2985         7.9710         105.74          97.07          10.30
      2986         7.9730         102.28          97.02          10.14
      2987         7.9750         110.63          96.96          10.53
      2988         7.9770         100.57          96.91          10.03
      2989         7.9790         101.67          96.86          10.12
      2990         7.9810         103.15          96.80          10.17
      2991         7.9830         102.39          96.75          10.14
      2992         7.9850          96.96          96.70           9.91
      2993         7.9870         104.82          96.65          10.28
      2994         7.9890         100.44          96.59          10.06
      2995         7.9910          96.54          96.54           9.84
      2996         7.9930         102.21          96.49          10.15
      2997         7.9950          86.23          96.44           9.34
      2998         7.9970          93.08          96.39           9.68
      2999         7.9990          99.73          96.33          10.00
      3000         8.0010         103.99          96.28          10.68
      3001         8.0030         103.99          96.23          10.66
      3002         8.0050          89.06          96.18           9.86
      3003         8.0070         103.92          96.13          10.67
      3004         8.0090          92.42          96.08          10.06
      3005         8.0110          95.71          96.03          10.22
      3006         8.0130         104.33          95.97          10.71
      3007         8.0150          95.90          95.92          10.27
      3008         8.0170          95.90          95.87          10.27
      3009         8.0190          91.18          95.82          10.00
      3010         8.0210          91.41          95.77           9.99
      3011         8.0230         111.02          95.72          11.04
      3012         8.0250         107.46          95.67          10.87
      3013         8.0270          95.79          95.62          10.26
      3014         8.0290         100.56          95.57          10.51
      3015         8.0310         102.29          95.52          10.60
      3016         8.0330         105.91          95.47          10.79
      3017         8.0350         111.26          95.42          11.07
      3018         8.0370          97.83          95.37          10.37
      3019         8.0390          94.59          95.32          10.20
      3020         8.0410          99.44          95.27          10.46
      3021         8.0430         102.59          95.22          10.62
      3022         8.0450          97.61          95.17          10.36
      3023         8.0470         102.41          95.12          10.61
      3024         8.0490         100.56          95.07          10.50
      3025         8.0510          87.24          95.02           9.77
      3026         8.0530         111.73          94.97          11.09
      3027         8.0550         102.74          94.92          10.62
      3028         8.0570          97.50          94.87          10.33
      3029         8.0590          99.01          94.83          10.43
      3030         8.0610         102.91          94.78          10.63
      3031         8.0630          96.86          94.73          10.32
      3032         8.0650          82.23          94.68           9.47
      3033         8.0670          88.89          94.63           9.87
      3034         8.0690          96.81          94.58          10.30
      3035         8.0710         120.83          94.53          11.53
      3036         8.0730         110.92          94.49          11.04
      3037         8.0750         105.03          94.44          10.75
      3038         8.0770          94.43          94.39          10.19
      3039         8.0790          95.53          94.34          10.23
      3040         8.0810         103.34          94.30          10.65
      3041         8.0830         100.96          94.25          10.53
      3042         8.0850          89.32          94.20           9.90
      3043         8.0870          82.51          94.15           9.50
      3044         8.0890          97.13          94.11          10.34
      3045         8.0910          87.77          94.06           9.82
      3046         8.0930          94.30          94.01          10.16
      3047         8.0950          86.26          93.96           9.71
      3048         8.0970          99.48          93.92          10.45
      3049         8.0990          93.51          93.87          10.12
      3050         8.1010          84.45          93.82           9.63
      3051         8.1030          87.04          93.78           9.78
      3052         8.1050          81.10          93.73           9.43
      3053         8.1070          98.07          93.68          10.38
      3054         8.1090          91.53          93.64          10.02
      3055         8.1110         100.65          93.59          10.50
      3056         8.1130         101.51          93.55          10.56
      3057         8.1150          95.71          93.50          10.26
      3058         8.1170          93.07          93.45          10.12
      3059         8.1190          92.90          93.41          10.10
      3060         8.1210          76.64          93.36           9.17
      3061         8.1230         104.04          93.32          10.66
      3062         8.1250          92.36          93.27          10.04
      3063         8.1270          91.08          93.23          10.00
      3064         8.1290          90.01          93.18           9.95
      3065         8.1310         103.69          93.14          10.68
      3066         8.1330          99.79          93.09          10.47
      3067         8.1350          96.16          93.04          10.28
      3068         8.1370          92.09          93.00          10.06
      3069         8.1390          82.79          92.96           9.54
      3070         8.1410          91.11          92.91          10.00
      3071         8.1430          95.21          92.87          10.21
      3072         8.1450          74.94          92.82           9.06
      3073         8.1470          86.36          92.78           9.74
      3074         8.1490          86.40          92.73           9.74
      3075         8.1510          96.40          92.69          10.27
      3076         8.1530         100.31          92.64          10.47
      3077         8.1550          79.09          92.60           9.31
      3078         8.1570          96.20          92.56          10.29
      3079         8.1590          93.45          92.51          10.14
      3080         8.1610          88.36          92.47           9.86
      3081         8.1630         101.12          92.42          10.55
      3082         8.1650          80.34          92.38           9.40
      3083         8.1670          82.37          92.34           9.51
      3084         8.1690          90.23          92.29           9.96
      3085         8.1710          93.74          92.25          10.14
      3086         8.1730          81.36          92.21           9.44
      3087         8.1750          97.33          92.17          10.35
      3088         8.1770         101.50          92.12          10.55
      3089         8.1790         108.89          92.08          10.96
      3090         8.1810          93.20          92.04          10.12
      3091         8.1830         101.94          91.99          10.58
      3092         8.1850          86.01          91.95           9.72
      3093         8.1870          82.26          91.91           9.48
      3094         8.1890          82.81          91.87           9.54
      3095         8.1910          83.39          91.82           9.57
      3096         8.1930          87.88          91.78           9.82
      3097         8.1950          90.06          91.74           9.96
      3098         8.1970          86.12          91.70           9.71
      3099         8.1990          93.92          91.66          10.14
      3100         8.2010          98.53          91.61          10.41
      3101         8.2030          95.21          91.57          10.23
      3102         8.2050         103.69          91.53          10.67
      3103         8.2070          99.59          91.49          10.43
      3104         8.2090          83.04          91.45           9.57
      3105         8.2110          79.01          91.41           9.32
      3106         8.2130          78.80          91.37           9.30
      3107         8.2150          85.74          91.32           9.71
      3108         8.2170          90.67          91.28           9.98
      3109         8.2190          93.90          91.24          10.16
      3110         8.2210          93.99          91.20          10.17
      3111         8.2230          95.49          91.16          10.25
      3112         8.2250          78.59          91.12           9.31
      3113         8.2270          83.36          91.08           9.57
      3114         8.2290          99.67          91.04          10.48
      3115         8.2310          97.66          91.00          10.37
      3116         8.2330          99.43          90.96          10.46
      3117         8.2350          88.94          90.92           9.89
      3118         8.2370          94.91          90.88          10.20
      3119         8.2390         107.83          90.84          10.89
      3120         8.2410          87.36          90.80           9.80
      3121         8.2430          87.59          90.76           9.81
      3122         8.2450          96.93          90.72          10.32
      3123         8.2470          98.40          90.68          10.39
      3124         8.2490          86.94          90.64           9.77
      3125         8.2510          78.90          90.60           9.31
      3126         8.2530          96.06          90.56          10.29
      3127         8.2550          84.77          90.52           9.66
      3128         8.2570          97.09          90.48          10.33
      3129         8.2590         102.88          90.44          10.63
      3130         8.2610          96.01          90.40          10.26
      3131         8.2630         102.10          90.37          10.60
      3132         8.2650          88.02          90.33           9.83
      3133         8.2670          82.98          90.29           9.54
      3134         8.2690          99.52          90.25          10.47
      3135         8.2710          99.56          90.21          10.46
      3136         8.2730          90.27          90.17           9.94
      3137         8.2750          96.65          90.14          10.29
      3138         8.2770         103.86          90.10          10.65
      3139         8.2790          86.30          90.06           9.75
      3140         8.2810          91.66          90.02          10.05
      3141         8.2830          87.46          89.98           9.81
      3142         8.2850          92.35          89.95          10.09
      3143         8.2870          93.03          89.91          10.11
      3144         8.2890          83.62          89.87           9.56
      3145         8.2910         106.50          89.83          10.81
      3146         8.2930          87.48          89.79           9.80
      3147         8.2950         101.47          89.76          10.56
      3148         8.2970         100.95          89.72          10.52
      3149         8.2990         104.35          89.68          10.71
      3150         8.3010          85.77          89.65           9.71
      3151         8.3030          79.25          89.61           9.33
      3152         8.3050          93.75          89.57          10.15
      3153         8.3070         105.14          89.54          10.74
      3154         8.3090          84.21          89.50           9.62
      3155         8.3110          88.13          89.46           9.85
      3156         8.3130          94.22          89.43          10.18
      3157         8.3150          95.83          89.39          10.26
      3158         8.3170          97.81          89.35          10.37
      3159         8.3190          91.05          89.32           9.93
      3160         8.3210         103.64          89.28          10.59
      3161         8.3230          99.09          89.24          10.41
      3162         8.3250         109.83          91.57          10.97
      3163         8.3270          90.59          91.62           9.98
      3164         8.3290          95.80          91.69          10.25
      3165         8.3310          87.66          91.75           9.79
      3166         8.3330          98.56          91.83          10.41
      3167         8.3350          98.31          91.91          10.39
      3168         8.3370          82.05          92.00           9.50
      3169         8.3390          92.97          92.10          10.11
      3170         8.3410          93.25          92.21          10.11
      3171         8.3430          91.70          92.33          10.05
      3172         8.3450          87.98          92.45           9.83
      3173         8.3470         101.12          92.59          10.53
      3174         8.3490          99.91          92.75          10.46
      3175         8.3510          98.34          92.92          10.39
      3176         8.3530          84.28          93.10           9.62
      3177         8.3550          87.82          93.30           9.82
      3178         8.3570          98.67          93.53          10.41
      3179         8.3590          92.28          93.77          10.07
      3180         8.3610          94.07          94.04          10.17
      3181         8.3630          86.92          94.34           9.75
      3182         8.3650         107.20          94.66          10.86
      3183         8.3670          91.20          95.03          10.00
      3184         8.3690         104.67          95.43          10.73
      3185         8.3710          98.47          95.88          10.40
      3186         8.3730          81.15          96.38           9.44
      3187         8.3750          98.64          96.94          10.42
      3188         8.3770          96.96          97.56          10.32
      3189         8.3790          96.90          98.27          10.31
      3190         8.3810         111.74          99.07          11.09
      3191         8.3830          84.39          99.98           9.62
      3192         8.3850          97.68         101.01          10.37
      3193         8.3870          91.20         102.20          10.01
      3194         8.3890          91.03         103.57           9.99
      3195         8.3910         113.40         105.16          11.18
      3196         8.3930         113.43         107.02          11.16
      3197         8.3950         110.20         109.21          10.98
      3198         8.3970         121.33         111.81          11.51
      3199         8.3990         113.02         114.94          11.14
      3200         8.4010         109.25         118.74          10.93
      3201         8.4030         136.87         123.42          12.25
      3202         8.4050         140.26         129.26          12.41
      3203         8.4070         144.31         136.68          12.58
      3204         8.4090         148.65         146.29          12.76
      3205         8.4110         175.48         159.04          13.86
      3206         8.4130         175.63         176.44          13.85
      3207         8.4150         186.00         201.04          14.27
      3208         8.4170         228.20         237.34          15.82
      3209         8.4190         254.99         293.90          16.71
      3210         8.4210         388.17         388.98          20.54
      3211         8.4230         700.21         572.34          27.53
      3212         8.4250        1494.20        1023.96          40.15
      3213         8.4270        3314.66        2232.75          59.85
      3214         8.4290        4867.38        4371.03          72.87
      3215         8.4310        3799.63        4177.45          63.96
      3216         8.4330        1778.93        2063.88          43.47
      3217         8.4350         820.09         957.07          29.74
      3218         8.4370         443.09         547.17          21.93
      3219         8.4390         310.97         376.79          18.43
      3220         8.4410         227.23         286.74          15.77
      3221         8.4430         207.36         232.66          15.04
      3222         8.4450         190.94         197.75          14.47
      3223         8.4470         170.09         173.94          13.66
      3224         8.4490         157.99         157.02          13.16
      3225         8.4510         130.50         144.57          11.95
      3226         8.4530         123.57         135.15          11.63
      3227         8.4550         120.91         127.84          11.50
      3228         8.4570         123.54         122.07          11.64
      3229         8.4590         119.21         117.43          11.44
      3230         8.4610         120.80         113.64          11.50
      3231         8.4630         139.60         110.50          12.37
      3232         8.4650         115.45         107.88          11.25
      3233         8.4670         118.69         105.66          11.40
      3234         8.4690         127.83         103.77          11.84
      3235         8.4710         119.78         102.14          11.43
      3236         8.4730          97.49         100.72          10.34
      3237         8.4750         110.88          99.49          11.03
      3238         8.4770         102.71          98.41          10.61
      3239         8.4790         104.77          97.45          10.72
      3240         8.4810         101.69          96.60          10.56
      3241         8.4830         110.22          95.84          10.99
      3242         8.4850          88.38          95.15           9.84
      3243         8.4870          84.97          94.54           9.63
      3244         8.4890          91.85          93.98          10.04
      3245         8.4910          90.05          93.48           9.93
      3246         8.4930          99.89          93.01          10.46
      3247         8.4950          93.04          92.59          10.09
      3248         8.4970          91.53          92.21           9.99
      3249         8.4990         108.25          91.85          10.88
      3250         8.5010         102.75          91.52          10.61
      3251         8.5030          89.85          91.21           9.92
      3252         8.5050          91.41          90.93          10.00
      3253         8.5070          88.90          90.67           9.86
      3254         8.5090          99.02          90.42          10.42
      3255         8.5110          84.08          90.19           9.57
      3256         8.5130          82.09          89.98           9.50
      3257         8.5150          90.61          89.78           9.98
      3258         8.5170          90.18          89.58           9.95
      3259         8.5190          87.86          89.41           9.80
      3260         8.5210          82.68          89.24           9.50
      3261         8.5230          94.45          89.08          10.17
      3262         8.5250         101.21          88.92          10.54
      3263         8.5270          91.41          88.78          10.01
      3264         8.5290          87.14          88.64           9.78
      3265         8.5310          84.73          88.51           9.64
      3266         8.5330          88.15          88.39           9.83
      3267         8.5350          80.44          88.27           9.39
      3268         8.5370          82.03          85.89           9.47
      3269         8.5390          89.27          85.86           9.90
      3270         8.5410          75.08          85.84           9.06
      3271         8.5430          88.30          85.81           9.84
      3272         8.5450          86.65          85.78           9.75
      3273         8.5470          90.54          85.76           9.97
      3274         8.5490          76.24          85.73           9.15
      3275         8.5510          85.72          85.70           9.69
      3276         8.5530          98.25          85.68          10.37
      3277         8.5550          90.46          85.65           9.95
      3278         8.5570          95.82          85.63          10.22
      3279         8.5590          76.05          85.60           9.14
      3280         8.5610          70.65          85.57           8.80
      3281         8.5630          88.31          85.55           9.84
      3282         8.5650          86.77          85.52           9.75
      3283         8.5670          97.46          85.50          10.33
      3284         8.5690         110.06          85.47          10.99
      3285         8.5710          91.06          85.44           9.99
      3286         8.5730          80.50          85.42           9.37
      3287         8.5750          77.60          85.39           9.21
      3288         8.5770          88.20          85.37           9.83
      3289         8.5790          83.12          85.34           9.55
      3290         8.5810          84.65          85.32           9.63
      3291         8.5830          93.41          85.29          10.10
      3292         8.5850         100.31          85.27          10.49
      3293         8.5870          87.45          85.24           9.76
      3294         8.5890          83.46          85.22           9.55
      3295         8.5910          90.31          85.19           9.93
      3296         8.5930          95.73          85.17          10.25
      3297         8.5950          82.99          85.14           9.55
      3298         8.5970          84.02          85.12           9.60
      3299         8.5990          73.09          85.09           8.95
      3300         8.6010          79.76          85.07           9.35
      3301         8.6030          79.41          85.04           9.33
      3302         8.6050          80.89          85.02           9.43
      3303         8.6070          79.69          85.00           9.35
      3304         8.6090          81.22          84.97           9.43
      3305         8.6110          90.07          84.95           9.93
      3306         8.6130          78.56          84.92           9.28
      3307         8.6150          88.22          84.90           9.83
      3308         8.6170          94.62          84.88          10.18
      3309         8.6190          83.40          84.85           9.49
      3310         8.6210          56.75          84.83           7.87
      3311         8.6230          81.88          84.80           9.47
      3312         8.6250          93.62          84.78          10.14
      3313         8.6270          90.41          84.76           9.96
      3314         8.6290          93.04          84.73          10.11
      3315         8.6310          86.35          84.71           9.74
      3316         8.6330          73.47          84.69           8.97
      3317         8.6350          69.84          84.66           8.75
      3318         8.6370          81.85          84.64           9.47
      3319         8.6390          91.66          84.62          10.03
      3320         8.6410          80.87          84.59           9.41
      3321         8.6430          78.54          84.57           9.25
      3322         8.6450          85.45          84.55           9.69
      3323         8.6470          90.60          84.53           9.96
      3324         8.6490          66.69          84.50           8.53
      3325         8.6510          74.92          84.48           9.07
      3326         8.6530          77.33          84.46           9.20
      3327         8.6550          86.19          84.44           9.71
      3328         8.6570          82.07          84.41           9.49
      3329         8.6590          71.66          84.39           8.85
      3330         8.6610          83.70          84.37           9.57
      3331         8.6630          88.82          84.35           9.86
      3332         8.6650          97.64          84.32          10.34
      3333         8.6670          87.53          84.30           9.80
      3334         8.6690          74.07          84.28           9.00
      3335         8.6710          78.64          84.26           9.26
      3336         8.6730         100.33          84.24          10.48
      3337         8.6750          79.24          84.21           9.32
      3338         8.6770          77.16          84.19           9.20
      3339         8.6790          80.29          84.17           9.38
      3340         8.6810          90.02          84.15           9.93
      3341         8.6830          72.02          84.13           8.86
      3342         8.6850          86.01          84.11           9.70
      3343         8.6870          79.25          84.08           9.30
      3344         8.6890          97.70          84.06          10.34
      3345         8.6910         101.37          84.04          10.54
      3346         8.6930          89.18          84.02           9.88
      3347         8.6950          90.15          84.00           9.94
      3348         8.6970          88.27          83.98           9.85
      3349         8.6990          80.39          83.96           9.39
      3350         8.7010          84.75          83.94           9.64
      3351         8.7030          79.80          83.92           9.36
      3352         8.7050          94.83          83.89          10.19
      3353         8.7070          77.69          83.87           9.20
      3354         8.7090          84.92          83.85           9.65
      3355         8.7110          85.54          83.83           9.68
      3356         8.7130          80.09          83.81           9.37
      3357         8.7150          84.00          83.79           9.60
      3358         8.7170          85.09          83.77           9.66
      3359         8.7190          83.20          83.75           9.55
      3360         8.7210          89.96          83.73           9.93
      3361         8.7230          84.73          83.71           9.63
      3362         8.7250          83.34          83.69           9.55
      3363         8.7270          81.21          83.67           9.43
      3364         8.7290          87.84          83.65           9.82
      3365         8.7310          70.64          83.63           8.77
      3366         8.7330          60.78          83.61           8.14
      3367         8.7350          77.76          83.59           9.23
      3368         8.7370          78.72          83.57           9.27
      3369         8.7390          79.48          83.55           9.34
      3370         8.7410          84.89          83.53           9.65
      3371         8.7430          90.99          83.51           9.98
      3372         8.7450          88.24          83.49           9.84
      3373         8.7470          89.31          83.47           9.88
      3374         8.7490         100.58          83.45          10.51
      3375         8.7510          93.23          83.43          10.11
      3376         8.7530          74.54          83.41           9.03
      3377         8.7550          77.90          83.39           9.23
      3378         8.7570          75.93          83.38           9.11
      3379         8.7590          87.70          83.36           9.79
      3380         8.7610          87.83          83.34           9.83
      3381         8.7630          80.69          83.32           9.41
      3382         8.7650          69.71          83.30           8.75
      3383         8.7670          82.60          83.28           9.52
      3384         8.7690          82.85          83.26           9.53
      3385         8.7710          78.44          83.24           9.29
      3386         8.7730          79.96          83.22           9.35
      3387         8.7750          87.01          83.21           9.77
      3388         8.7770          77.14          83.19           9.19
      3389         8.7790          87.72          83.17           9.81
      3390         8.7810          81.04          83.15           9.42
      3391         8.7830          75.70          83.13           9.10
      3392         8.7850          85.66          83.11           9.68
      3393         8.7870          80.82          83.10           9.41
      3394         8.7890          76.40          83.08           9.15
      3395         8.7910          75.06          83.06           9.06
      3396         8.7930          82.39          83.04           9.49
      3397         8.7950          79.37          83.02           9.31
      3398         8.7970          82.87          83.01           9.51
      3399         8.7990          91.06          82.99           9.98
      3400         8.8010          82.52          82.97           9.50
      3401         8.8030          79.44          82.95           9.32
      3402         8.8050          78.33          82.94           9.26
      3403         8.8070          83.00          82.92           9.53
      3404         8.8090          86.84          82.90           9.76
      3405         8.8110          77.23          82.88           9.19
      3406         8.8130          84.23          82.87           9.60
      3407         8.8150          87.58          82.85           9.78
      3408         8.8170          75.73          82.83           9.09
      3409         8.8190          75.39          82.81           9.06
      3410         8.8210          76.49          82.80           9.16
      3411         8.8230          84.49          82.78           9.60
      3412         8.8250          87.81          82.76           9.79
      3413         8.8270          91.22          82.75           9.96
      3414         8.8290          90.59          82.73           9.96
      3415         8.8310          85.00          82.71           9.64
      3416         8.8330          79.09          82.69           9.30
      3417         8.8350          77.20          82.68           9.17
      3418         8.8370          96.71          82.66          10.28
      3419         8.8390          89.22          82.64           9.88
      3420         8.8410          87.17          82.63           9.76
      3421         8.8430          88.70          82.61           9.85
      3422         8.8450          90.10          82.59           9.92
      3423         8.8470          74.42          82.58           9.01
      3424         8.8490          79.65          82.56           9.33
      3425         8.8510          81.23          82.55           9.42
      3426         8.8530          82.13          82.53           9.46
      3427         8.8550          76.40          82.51           9.14
      3428         8.8570          86.51          82.50           9.73
      3429         8.8590          76.39          82.48           9.13
      3430         8.8610          77.02          82.46           9.15
      3431         8.8630          86.59          82.45           9.71
      3432         8.8650          91.48          82.43          10.02
      3433         8.8670          76.87          82.42           9.17
      3434         8.8690          78.17          82.40           9.25
      3435         8.8710          77.99          82.39           9.23
      3436         8.8730          74.29          82.37           9.01
      3437         8.8750          78.37          82.35           9.25
      3438         8.8770          90.10          82.34           9.92
      3439         8.8790          91.31          82.32          10.00
      3440         8.8810          90.45          82.31           9.95
      3441         8.8830          77.46          82.29           9.20
      3442         8.8850          63.19          82.28           8.31
      3443         8.8870          79.52          82.26           9.32
      3444         8.8890          87.39          82.25           9.78
      3445         8.8910          83.51          82.23           9.56
      3446         8.8930          92.18          82.22          10.04
      3447         8.8950          83.65          82.20           9.57
      3448         8.8970          79.89          82.19           9.34
      3449         8.8990          71.56          82.17           8.83
      3450         8.9010          71.65          82.16           8.84
      3451         8.9030          77.25          82.14           9.18
      3452         8.9050          78.90          82.13           9.28
      3453         8.9070          88.16          82.11           9.82
      3454         8.9090          89.75          82.10           9.91
      3455         8.9110          95.16          82.08          10.20
      3456         8.9130          83.97          82.07           9.58
      3457         8.9150          69.08          82.05           8.68
      3458         8.9170          79.87          82.04           9.33
      3459         8.9190          75.27          82.02           9.05
      3460         8.9210          88.06          82.01           9.79
      3461         8.9230          72.27          82.00           8.88
      3462         8.9250          79.59          81.98           9.31
      3463         8.9270          75.51          81.97           9.08
      3464         8.9290          76.01          81.95           9.11
      3465         8.9310          82.27          81.94           9.49
      3466         8.9330          72.75          81.92           8.88
      3467         8.9350          89.64          81.91           9.88
      3468         8.9370         103.99          81.90          10.65
      3469         8.9390          82.81          81.88           9.49
      3470         8.9410          94.50          81.87          10.13
      3471         8.9430          68.14          81.85           8.53
      3472         8.9450          74.48          81.84           9.02
      3473         8.9470          73.21          81.83           8.92
      3474         8.9490          78.10          81.81           9.25
      3475         8.9510          81.01          81.80           9.42
      3476         8.9530          81.15          81.79           9.41
      3477         8.9550          61.22          81.77           8.17
      3478         8.9570          82.94          81.76           9.53
      3479         8.9590          93.26          81.75          10.11
      3480         8.9610          88.86          81.73           9.86
      3481         8.9630          97.31          81.72          10.32
      3482         8.9650          94.61          81.71          10.18
      3483         8.9670          87.22          81.69           9.77
      3484         8.9690          81.05          81.68           9.40
      3485         8.9710         104.62          81.67          10.70
      3486         8.9730          93.62          81.65          10.11
      3487         8.9750          74.90          81.64           9.05
      3488         8.9770          88.76          81.63           9.85
      3489         8.9790          94.41          81.61          10.17
      3490         8.9810          88.74          81.60           9.83
      3491         8.9830          86.19          81.59           9.66
      3492         8.9850          85.07          81.58           9.61
      3493         8.9870          80.98          81.56           9.42
      3494         8.9890          80.67          81.55           9.38
      3495         8.9910         100.64          81.54          10.50
      3496         8.9930          85.61          81.53           9.68
      3497         8.9950          96.81          81.51          10.31
      3498         8.9970          86.90          81.50           9.73
      3499         8.9990         103.87          81.49          10.66
      3500         9.0010          95.45          81.48          10.23
      3501         9.0030         104.51          81.46          10.70
      3502         9.0050          90.56          81.45           9.95
      3503         9.0070          86.16          81.44           9.71
      3504         9.0090          73.57          81.43           8.96
      3505         9.0110          87.88          81.41           9.81
      3506         9.0130          83.85          81.40           9.57
      3507         9.0150          67.69          81.39           8.59
      3508         9.0170          79.69          81.38           9.33
      3509         9.0190          85.58          81.37           9.68
      3510         9.0210          81.00          81.35           9.42
      3511         9.0230          77.20          81.34           9.18
      3512         9.0250          87.49          81.33           9.75
      3513         9.0270         102.32          81.32          10.56
      3514         9.0290          93.54          81.31          10.12
      3515         9.0310          84.23          81.29           9.59
      3516         9.0330          93.95          81.28          10.12
      3517         9.0350          87.39          81.27           9.74
      3518         9.0370          75.27          81.26           9.07
      3519         9.0390          83.24          81.25           9.54
      3520         9.0410          89.44          81.24           9.87
      3521         9.0430          90.48          81.23           9.92
      3522         9.0450          89.18          81.21           9.87
      3523         9.0470          77.04          81.20           9.18
      3524         9.0490          94.73          81.19          10.19
      3525         9.0510          93.15          81.18          10.08
      3526         9.0530          91.88          81.17           9.99
      3527         9.0550          89.25          81.16           9.88
      3528         9.0570          80.60          81.15           9.39
      3529         9.0590          83.72          81.14           9.58
      3530         9.0610          75.72          81.12           9.11
      3531         9.0630          76.16          81.11           9.13
      3532         9.0650          75.26          81.10           9.07
      3533         9.0670          84.23          81.09           9.59
      3534         9.0690          77.90          81.08           9.22
      3535         9.0710          81.37          81.07           9.44
      3536         9.0730          85.00          81.06           9.63
      3537         9.0750          97.60          81.05          10.33
      3538         9.0770          98.56          81.04          10.38
      3539         9.0790          82.71          81.03           9.50
      3540         9.0810          85.81          81.02           9.69
      3541         9.0830          76.93          81.01           9.16
      3542         9.0850          91.34          81.00           9.99
      3543         9.0870          88.78          80.98           9.83
      3544         9.0890          99.01          80.97          10.41
      3545         9.0910          79.47          80.96           9.29
      3546         9.0930          98.34          80.95          10.35
      3547         9.0950         100.72          80.94          10.49
      3548         9.0970          96.61          80.93          10.26
      3549         9.0990          80.81          80.92           9.39
      3550         9.1010          83.18          80.91           9.53
      3551         9.1030          83.74          80.90           9.56
      3552         9.1050          95.17          80.89          10.21
      3553         9.1070          85.47          80.88           9.66
      3554         9.1090          80.25          80.87           9.36
      3555         9.1110          95.10          80.86          10.20
      3556         9.1130          87.71          80.85           9.78
      3557         9.1150          96.91          80.84          10.29
      3558         9.1170          88.55          80.83           9.82
      3559         9.1190         102.45          80.82          10.59
      3560         9.1210          84.00          80.81           9.58
      3561         9.1230          78.72          80.80           9.26
      3562         9.1250          94.39          80.79          10.16
      3563         9.1270          94.56          80.78          10.16
      3564         9.1290          77.54          80.77           9.21
      3565         9.1310          75.33          80.76           9.07
      3566         9.1330          90.29          80.75           9.95
      3567         9.1350          98.13          80.75          10.36
      3568         9.1370          78.22          80.74           9.22
      3569         9.1390          75.14          83.50           9.07
      3570         9.1410          71.17          83.61           8.82
      3571         9.1430          96.11          83.73          10.24
      3572         9.1450         107.30          83.85          10.83
      3573         9.1470          97.69          83.99          10.33
      3574         9.1490          85.56          84.13           9.66
      3575         9.1510          85.04          84.29           9.65
      3576         9.1530         107.75          84.45          10.83
      3577         9.1550          96.61          84.63          10.25
      3578         9.1570          87.57          84.83           9.77
      3579         9.1590          81.34          85.04           9.42
      3580         9.1610          82.49          85.26           9.49
      3581         9.1630          84.70          85.51           9.63
      3582         9.1650          90.36          85.78           9.93
      3583         9.1670          83.61          86.08           9.54
      3584         9.1690          82.18          86.40           9.48
      3585         9.1710          92.01          86.75          10.04
      3586         9.1730          82.15          87.14           9.47
      3587         9.1750          85.77          87.57           9.69
      3588         9.1770          91.12          88.04          10.00
      3589         9.1790          79.51          88.56           9.34
      3590         9.1810          90.27          89.15           9.91
      3591         9.1830          85.84          89.80           9.65
      3592         9.1850         105.74          90.53          10.77
      3593         9.1870          97.93          91.35          10.34
      3594         9.1890          84.15          92.27           9.58
      3595         9.1910          99.59          93.33          10.45
      3596         9.1930          88.53          94.54           9.85
      3597         9.1950         100.46          95.92          10.47
      3598         9.1970         100.25          97.53          10.45
      3599         9.1990          99.12          99.40          10.41
      3600         9.2010         119.09         101.60          11.41
      3601         9.2030         119.32         104.20          11.41
      3602         9.2050         106.48         107.33          10.79
      3603         9.2070         119.68         111.11          11.44
      3604         9.2090         133.71         115.76          12.10
      3605         9.2110         141.26         121.54          12.43
      3606         9.2130         134.83         128.87          12.14
      3607         9.2150         136.57         138.35          12.22
      3608         9.2170         148.04         150.89          12.71
      3609         9.2190         132.08         167.96          11.99
      3610         9.2210         182.43         192.00          14.13
      3611         9.2230         170.37         227.36          13.63
      3612         9.2250         225.25         282.26          15.64
      3613         9.2270         313.45         373.85          18.50
      3614         9.2290         422.22         543.36          21.40
      3615         9.2310         782.42         920.45          29.06
      3616         9.2330        1675.21        1931.24          42.13
      3617         9.2350        3785.38        4170.58          64.12
      3618         9.2370        4750.29        4462.04          71.96
      3619         9.2390        2867.62        2140.55          55.35
      3620         9.2410        1251.82         998.49          36.67
      3621         9.2430         630.67         574.51          26.12
      3622         9.2450         411.96         389.35          21.18
      3623         9.2470         311.85         291.08          18.42
      3624         9.2490         218.03         232.81          15.43
      3625         9.2510         194.78         195.57          14.60
      3626         9.2530         157.89         170.38          13.12
      3627         9.2550         140.52         152.59          12.39
      3628         9.2570         147.06         139.57          12.68
      3629         9.2590         115.57         129.75          11.24
      3630         9.2610         128.48         122.17          11.86
      3631         9.2630         121.31         116.20          11.52
      3632         9.2650         111.09         111.42          11.02
      3633         9.2670         112.93         107.52          11.11
      3634         9.2690         107.44         104.31          10.83
      3635         9.2710         114.54         101.63          11.18
      3636         9.2730         103.32          99.37          10.62
      3637         9.2750         125.08          97.45          11.70
      3638         9.2770         100.94          95.80          10.50
      3639         9.2790         118.54          94.37          11.39
      3640         9.2810          97.76          93.13          10.33
      3641         9.2830          95.68          92.04          10.20
      3642         9.2850          97.33          91.08          10.30
      3643         9.2870         103.95          90.23          10.67
      3644         9.2890          95.76          89.48          10.24
      3645         9.2910          94.26          88.80          10.15
      3646         9.2930          95.98          88.20          10.23
      3647         9.2950         103.62          87.65          10.62
      3648         9.2970          73.00          87.16           8.93
      3649         9.2990          67.45          86.71           8.58
      3650         9.3010          91.73          86.30          10.03
      3651         9.3030          90.05          85.93           9.93
      3652         9.3050          85.55          85.59           9.67
      3653         9.3070          97.15          85.27          10.31
      3654         9.3090          84.60          84.99           9.62
      3655         9.3110          87.23          84.72           9.76
      3656         9.3130          73.14          84.47           8.94
      3657         9.3150          77.44          84.24           9.19
      3658         9.3170          89.64          84.03           9.88
      3659         9.3190          70.77          83.84           8.79
      3660         9.3210          51.70          83.65           7.48
      3661         9.3230          79.47          83.48           9.32
      3662         9.3250          83.44          83.32           9.55
      3663         9.3270          78.09          83.17           9.22
      3664         9.3290          83.16          83.03           9.51
      3665         9.3310         100.82          82.90          10.48
      3666         9.3330          84.29          82.77           9.54
      3667         9.3350          88.40          79.97           9.79
      3668         9.3370          95.66          79.97          10.23
      3669         9.3390          92.21          79.96          10.05
      3670         9.3410          93.57          79.95          10.12
      3671         9.3430          89.07          79.95           9.87
      3672         9.3450          83.65          79.94           9.56
      3673         9.3470          99.77          79.94          10.44
      3674         9.3490          77.71          79.93           9.23
      3675         9.3510          82.76          79.92           9.52
      3676         9.3530          80.45          79.92           9.38
      3677         9.3550          77.20          79.91           9.19
      3678         9.3570          93.50          79.91          10.12
      3679         9.3590          79.07          79.90           9.30
      3680         9.3610          71.02          79.90           8.81
      3681         9.3630          72.42          79.89           8.90
      3682         9.3650          79.40          79.88           9.32
      3683         9.3670          84.06          79.88           9.58
      3684         9.3690          88.50          79.87           9.83
      3685         9.3710          76.82          79.87           9.14
      3686         9.3730          81.76          79.86           9.45
      3687         9.3750          88.09          79.86           9.80
      3688         9.3770          99.21          79.85          10.38
      3689         9.3790          93.85          79.85          10.11
      3690         9.3810          84.75          79.84           9.62
      3691         9.3830          83.13          79.83           9.52
      3692         9.3850          82.84          79.83           9.51
      3693         9.3870          80.96          79.82           9.40
      3694         9.3890          74.23          79.82           8.99
      3695         9.3910          66.41          79.81           8.53
      3696         9.3930          77.40          79.81           9.20
      3697         9.3950          74.71          79.80           9.04
      3698         9.3970          83.40          79.80           9.54
      3699         9.3990          93.76          79.79          10.11
      3700         9.4010          87.05          79.79           9.72
      3701         9.4030          95.23          79.78          10.20
      3702         9.4050          76.60          79.78           9.14
      3703         9.4070          90.30          79.77           9.93
      3704         9.4090          71.84          79.77           8.85
      3705         9.4110          82.84          79.76           9.51
      3706         9.4130          81.49          79.76           9.42
      3707         9.4150          78.02          79.75           9.23
      3708         9.4170          73.34          79.75           8.94
      3709         9.4190          88.84          79.74           9.86
      3710         9.4210          84.06          79.74           9.57
      3711         9.4230          73.50          79.73           8.97
      3712         9.4250          63.40          79.73           8.33
      3713         9.4270          70.42          79.72           8.77
      3714         9.4290          72.74          79.72           8.92
      3715         9.4310          81.86          79.71           9.45
      3716         9.4330          73.47          79.71           8.94
      3717         9.4350          73.59          79.70           8.97
      3718         9.4370          76.35          79.70           9.10
      3719         9.4390         105.79          79.69          10.75
      3720         9.4410          87.01          79.69           9.75
      3721         9.4430          90.98          79.68           9.97
      3722         9.4450          72.44          79.68           8.88
      3723         9.4470         100.21          79.67          10.46
      3724         9.4490          91.63          79.67           9.99
      3725         9.4510          80.87          79.66           9.40
      3726         9.4530          77.36          79.66           9.19
      3727         9.4550          80.06          79.65           9.35
      3728         9.4570          80.44          79.65           9.37
      3729         9.4590          80.36          79.65           9.37
      3730         9.4610          77.45          79.64           9.19
      3731         9.4630          72.64          79.64           8.91
      3732         9.4650          68.11          79.63           8.63
      3733         9.4670          84.82          79.63           9.63
      3734         9.4690          94.44          79.62          10.17
      3735         9.4710          80.74          79.62           9.38
      3736         9.4730          88.93          79.61           9.85
      3737         9.4750          80.91          79.61           9.35
      3738         9.4770          65.55          79.61           8.45
      3739         9.4790          74.14          79.60           9.00
      3740         9.4810          73.57          79.60           8.97
      3741         9.4830          83.36          79.59           9.55
      3742         9.4850          88.71          79.59           9.85
      3743         9.4870          77.48          79.59           9.19
      3744         9.4890          79.15          79.58           9.30
      3745         9.4910          87.04          79.58           9.75
      3746         9.4930          84.99          79.57           9.61
      3747         9.4950          79.04          79.57           9.28
      3748         9.4970          79.98          79.56           9.32
      3749         9.4990          87.12          79.56           9.77
      3750         9.5010          77.00          79.56           9.17
      3751         9.5030          80.60          79.55           9.38
      3752         9.5050          68.34          79.55           8.63
      3753         9.5070          69.86          79.54           8.73
      3754         9.5090          88.39          79.54           9.84
      3755         9.5110          82.53          79.54           9.51
      3756         9.5130          86.00          79.53           9.69
      3757         9.5150          85.15          79.53           9.64
      3758         9.5170          84.58          79.53           9.60
      3759         9.5190          76.73          79.52           9.15
      3760         9.5210          82.19          79.52           9.47
      3761         9.5230          88.39          79.51           9.82
      3762         9.5250          76.01          79.51           9.09
      3763         9.5270          66.84          79.51           8.54
      3764         9.5290          81.23          79.50           9.43
      3765         9.5310          77.70          79.50           9.22
      3766         9.5330          87.99          79.50           9.80
      3767         9.5350          74.55          79.49           9.01
      3768         9.5370          78.69          79.49           9.27
      3769         9.5390          74.94          79.48           9.05
      3770         9.5410          82.20          79.48           9.47
      3771         9.5430          99.50          79.48          10.42
      3772         9.5450          87.82          79.47           9.79
      3773         9.5470         103.69          79.47          10.64
      3774         9.5490         117.60          79.47          11.34
      3775         9.5510         102.46          79.46          10.57
      3776         9.5530          81.12          79.46           9.40
      3777         9.5550          74.02          79.46           8.93
      3778         9.5570          76.83          79.45           9.14
      3779         9.5590          83.43          79.45           9.55
      3780         9.5610          83.82          79.45           9.58
      3781         9.5630          65.90          79.44           8.48
      3782         9.5650          84.52          79.44           9.61
      3783         9.5670          79.30          79.44           9.29
      3784         9.5690          76.92          79.43           9.17
      3785         9.5710          82.66          79.43           9.50
      3786         9.5730          83.65          79.43           9.53
      3787         9.5750          70.33          79.42           8.76
      3788         9.5770          82.34          79.42           9.48
      3789         9.5790          69.42          79.42           8.72
      3790         9.5810          82.35          79.41           9.48
      3791         9.5830          77.02          79.41           9.15
      3792         9.5850          74.65          79.41           9.02
      3793         9.5870          78.17          79.40           9.23
      3794         9.5890          67.15          79.40           8.54
      3795         9.5910          84.24          79.40           9.60
      3796         9.5930          77.04          79.40           9.16
      3797         9.5950          88.31          79.39           9.81
      3798         9.5970          77.11          79.39           9.16
      3799         9.5990          91.62          79.39          10.01
      3800         9.6010          87.48          79.38           9.78
      3801         9.6030          79.76          79.38           9.33
      3802         9.6050          76.88          79.38           9.17
      3803         9.6070          80.02          79.37           9.34
      3804         9.6090          86.79          79.37           9.74
      3805         9.6110          70.33          79.37           8.74
      3806         9.6130          93.92          79.37          10.14
      3807         9.6150          85.62          79.36           9.67
      3808         9.6170          86.20          79.36           9.70
      3809         9.6190          91.70          79.36          10.02
      3810         9.6210          86.39          79.35           9.72
      3811         9.6230          79.45          79.35           9.32
      3812         9.6250          86.63          79.35           9.73
      3813         9.6270          89.62          79.35           9.90
      3814         9.6290          81.58          79.34           9.45
      3815         9.6310          80.58          79.34           9.39
      3816         9.6330          88.62          79.34           9.84
      3817         9.6350          75.71          79.34           9.09
      3818         9.6370          63.03          79.33           8.28
      3819         9.6390          80.47          79.33           9.36
      3820         9.6410          92.64          79.33          10.05
      3821         9.6430          69.74          79.33           8.72
      3822         9.6450          77.43          79.32           9.19
      3823         9.6470          89.88          79.32           9.91
      3824         9.6490          82.73          79.32           9.50
      3825         9.6510          68.51          79.32           8.65
      3826         9.6530          70.12          79.31           8.76
      3827         9.6550          84.19          79.31           9.59
      3828         9.6570          86.52          79.31           9.72
      3829         9.6590          80.85          79.31           9.40
      3830         9.6610          73.27          79.30           8.94
      3831         9.6630          77.56          79.30           9.20
      3832         9.6650          69.41          79.30           8.71
      3833         9.6670          77.46          79.30           9.20
      3834         9.6690          71.91          79.29           8.87
      3835         9.6710          77.01          79.29           9.18
      3836         9.6730          72.20          79.29           8.87
      3837         9.6750          77.99          79.29           9.22
      3838         9.6770          90.33          79.28           9.92
      3839         9.6790          67.54          79.28           8.58
      3840         9.6810          82.64          79.28           9.51
      3841         9.6830          79.09          79.28           9.29
      3842         9.6850          94.05          79.28          10.15
      3843         9.6870          82.80          79.27           9.48
      3844         9.6890          93.00          79.27          10.07
      3845         9.6910          80.14          79.27           9.35
      3846         9.6930          82.17          79.27           9.47
      3847         9.6950          80.00          79.26           9.35
      3848         9.6970          64.11          79.26           8.36
      3849         9.6990          80.69          79.26           9.40
      3850         9.7010          69.05          79.26           8.68
      3851         9.7030          78.12          79.26           9.25
      3852         9.7050          83.50          79.25           9.56
      3853         9.7070          87.84          79.25           9.79
      3854         9.7090          79.66          79.25           9.31
      3855         9.7110          88.85          79.25           9.85
      3856         9.7130          84.20          79.25           9.58
      3857         9.7150          78.34          79.24           9.26
      3858         9.7170          81.97          79.24           9.43
      3859         9.7190          91.77          79.24          10.00
      3860         9.7210          90.18          79.24           9.93
      3861         9.7230          85.24          79.24           9.66
      3862         9.7250          80.27          79.23           9.36
      3863         9.7270          74.65          79.23           9.04
      3864         9.7290          78.52          79.23           9.27
      3865         9.7310          80.49          79.23           9.39
      3866         9.7330          78.47          79.23           9.26
      3867         9.7350          82.77          79.23           9.52
      3868         9.7370          78.15          79.22           9.23
      3869         9.7390          93.26          79.22          10.09
      3870         9.7410          62.68          79.22           8.26
      3871         9.7430          66.46          79.22           8.52
      3872         9.7450          72.49          79.22           8.90
      3873         9.7470          83.01          79.22           9.53
      3874         9.7490          85.78          79.21           9.68
      3875         9.7510          84.68          79.21           9.61
      3876         9.7530          80.27          79.21           9.36
      3877         9.7550          74.21          79.21           9.02
      3878         9.7570          70.09          79.21           8.75
      3879         9.7590          81.06          79.21           9.42
      3880         9.7610          69.04          79.20           8.68
      3881         9.7630          72.29          79.20           8.88
      3882         9.7650          85.44          79.20           9.67
      3883         9.7670          75.94          79.20           9.11
      3884         9.7690          79.76          79.20           9.34
      3885         9.7710          82.65          79.20           9.51
      3886         9.7730          70.96          79.19           8.80
      3887         9.7750          76.06          79.19           9.10
      3888         9.7770          88.04          79.19           9.80
      3889         9.7790          78.68          79.19           9.27
      3890         9.7810          71.54          79.19           8.84
      3891         9.7830          67.44          79.19           8.59
      3892         9.7850          84.00          79.19           9.59
      3893         9.7870          92.32          79.18          10.05
      3894         9.7890          68.48          79.18           8.65
      3895         9.7910          81.15          79.18           9.41
      3896         9.7930          83.23          79.18           9.53
      3897         9.7950          80.41          79.18           9.36
      3898         9.7970          65.59          79.18           8.45
      3899         9.7990          79.00          79.18           9.29
      3900         9.8010          90.78          79.18           9.96
      3901         9.8030          82.55          79.17           9.48
      3902         9.8050          68.93          79.17           8.67
      3903         9.8070          78.63          79.17           9.28
      3904         9.8090          71.14          79.17           8.81
      3905         9.8110          75.08          79.17           9.05
      3906         9.8130          66.93          79.17           8.54
      3907         9.8150          77.46          79.17           9.20
      3908         9.8170          77.14          79.17           9.18
      3909         9.8190          81.36          79.16           9.44
      3910         9.8210          69.19          79.16           8.68
      3911         9.8230          66.80          79.16           8.52
      3912         9.8250          84.33          79.16           9.60
      3913         9.8270          83.28          79.16           9.53
      3914         9.8290          75.46          79.16           9.07
      3915         9.8310          82.07          79.16           9.47
      3916         9.8330          82.84          79.16           9.51
      3917         9.8350          79.25          79.16           9.29
      3918         9.8370          73.13          79.15           8.93
      3919         9.8390          78.11          79.15           9.23
      3920         9.8410          79.10          79.15           9.28
      3921         9.8430          77.72          79.15           9.21
      3922         9.8450          83.29          79.15           9.54
      3923         9.8470          66.21          79.15           8.49
      3924         9.8490          84.92          79.15           9.63
      3925         9.8510          82.05          79.15           9.45
      3926         9.8530          83.14          79.15           9.51
      3927         9.8550          70.84          79.15           8.78
      3928         9.8570          61.08          79.14           8.14
      3929         9.8590          84.93          79.14           9.62
      3930         9.8610          84.71          79.14           9.61
      3931         9.8630          84.62          79.14           9.61
      3932         9.8650          69.14          79.14           8.70
      3933         9.8670          77.85          79.14           9.23
      3934         9.8690          80.36          79.14           9.34
      3935         9.8710          92.54          79.14          10.04
      3936         9.8730          78.77          79.14           9.26
      3937         9.8750          64.97          79.14           8.43
      3938         9.8770          75.01          79.14           9.06
      3939         9.8790          73.89          79.14           9.00
      3940         9.8810          70.91          79.13           8.77
      3941         9.8830          83.95          79.13           9.56
      3942         9.8850          80.42          79.13           9.36
      3943         9.8870          81.03          79.13           9.42
      3944         9.8890          77.32          79.13           9.21
      3945         9.8910          64.99          79.13           8.43
      3946         9.8930          62.91          79.13           8.28
      3947         9.8950          86.49          79.13           9.73
      3948         9.8970          69.33          79.13           8.67
      3949         9.8990          66.75          79.13           8.53
      3950         9.9010          72.74          79.13           8.91
      3951         9.9030          78.60          79.13           9.26
      3952         9.9050          77.20          79.13           9.19
      3953         9.9070          72.38          79.13           8.89
      3954         9.9090          78.37          79.13           9.24
      3955         9.9110          66.25          79.13           8.52
      3956         9.9130          69.80          79.12           8.74
      3957         9.9150          68.38          79.12           8.65
      3958         9.9170          75.79          79.12           9.10
      3959         9.9190          86.33          79.12           9.72
      3960         9.9210          80.79          79.12           9.40
      3961         9.9230          83.28          79.12           9.53
      3962         9.9250          63.83          79.12           8.32
      3963         9.9270          78.61          79.12           9.24
      3964         9.9290          90.13          79.12           9.93
      3965         9.9310          76.17          79.12           9.12
      3966         9.9330          66.76          79.12           8.53
      3967         9.9350          69.08          79.12           8.70
      3968         9.9370          69.84          79.12           8.72
      3969         9.9390          89.37          79.12           9.89
      3970         9.9410          75.48          79.12           9.09
      3971         9.9430          70.39          79.12           8.77
      3972         9.9450          70.66          79.12           8.79
      3973         9.9470          82.99          79.12           9.53
      3974         9.9490          67.75          79.12           8.61
      3975         9.9510          65.03          79.12           8.43
      3976         9.9530          80.76          79.12           9.39
      3977         9.9550          67.89          79.12           8.61
      3978         9.9570          72.85          79.12           8.92
      3979         9.9590          73.49          79.12           8.96
      3980         9.9610          79.49          79.12           9.32
      3981         9.9630          70.95          79.12           8.80
      3982         9.9650          67.50          79.12           8.59
      3983         9.9670          64.04          79.12           8.36
      3984         9.9690          76.00          79.12           9.11
      3985         9.9710          71.30          79.11           8.81
      3986         9.9730          63.85          79.11           8.35
      3987         9.9750          72.00          79.11           8.88
      3988         9.9770          77.14          79.11           9.18
      3989         9.9790          68.73          79.11           8.67
      3990         9.9810          59.51          79.11           8.06
      3991         9.9830          71.16          79.11           8.82
      3992         9.9850          69.56          79.11           8.71
      3993         9.9870          80.65          79.11           9.38
      3994         9.9890          71.01          79.11           8.80
      3995         9.9910          62.15          79.11           8.22
      3996         9.9930          84.16          79.11           9.58
      3997         9.9950          73.76          79.11           8.97
      3998         9.9970          75.31          79.11           9.07
      3999         9.9990          82.26          79.11          13.51
      4000        10.0010          82.80          79.11           9.14
      4001        10.0030          86.01          79.11           9.29
      4002        10.0050          95.75          79.11           9.82
      4003        10.0070          66.84          79.11           8.14
      4004        10.0090          83.74          79.11           9.18
      4005        10.0110          70.81          79.11           8.37
      4006        10.0130          80.75          79.11           8.97
      4007        10.0150          78.29          79.11           8.83
      4008        10.0170          75.41          79.11           8.65
      4009        10.0190          84.49          79.11           9.22
      4010        10.0210          90.53          79.11           9.56
      4011        10.0230          74.85          79.11           8.62
      4012        10.0250          76.38          79.11           8.70
      4013        10.0270          78.37          79.12           8.83
      4014        10.0290          73.78          79.12           8.59
      4015        10.0310          69.49          79.12           8.24
      4016        10.0330          70.34          79.12           8.36
      4017        10.0350          83.29          79.12           9.18
      4018        10.0370          72.82          79.12           8.50
      4019        10.0390          63.16          79.12           7.88
      4020        10.0410          81.30          79.12           9.03
      4021        10.0430          77.86          79.12           8.77
      4022        10.0450          72.13          79.12           8.44
      4023        10.0470          78.10          79.12           8.85
      4024        10.0490          70.66          79.12           8.40
      4025        10.0510          76.20          79.12           8.68
      4026        10.0530          82.33          79.12           9.04
      4027        10.0550          70.64          79.12           8.35
      4028        10.0570          87.49          79.12           9.39
      4029        10.0590          89.80          79.12           9.49
      4030        10.0610          71.66          79.12           8.45
      4031        10.0630          69.71          79.12           8.39
      4032        10.0650          66.21          79.12           8.12
      4033        10.0670          75.92          79.12           8.70
      4034        10.0690          77.16          79.12           8.69
      4035        10.0710          79.71          79.12           8.93
      4036        10.0730          75.80          79.12           8.62
      4037        10.0750          82.00          79.12           9.02
      4038        10.0770          72.00          79.12           8.36
      4039        10.0790          67.03          79.12           8.17
      4040        10.0810          66.50          79.12           8.08
      4041        10.0830          81.96          79.12           9.03
      4042        10.0850          72.58          79.12           8.42
      4043        10.0870          84.45          79.13           9.17
      4044        10.0890          79.79          79.13           8.86
      4045        10.0910          67.80          79.13           8.24
      4046        10.0930          70.17          79.13           8.35
      4047        10.0950          81.26          79.13           9.04
      4048        10.0970          67.00          79.13           8.13
      4049        10.0990          67.45          79.13           8.21
      4050        10.1010          64.47          79.13           7.92
      4051        10.1030          73.76          79.13           8.59
      4052        10.1050          65.57          79.13           8.13
      4053        10.1070          79.29          79.13           8.90
      4054        10.1090          86.06          79.13           9.21
      4055        10.1110          75.60          79.13           8.58
      4056        10.1130          93.62          79.13           9.65
      4057        10.1150          68.30          79.13           8.20
      4058        10.1170          67.11          79.13           8.05
      4059        10.1190          79.74          79.13           8.91
      4060        10.1210          92.63          79.14           9.57
      4061        10.1230          80.28          79.14           8.92
      4062        10.1250          66.35          79.14           8.07
      4063        10.1270          81.89          79.14           9.06
      4064        10.1290          73.86          79.14           8.50
      4065        10.1310          66.59          79.14           8.07
      4066        10.1330          60.06          79.14           7.73
      4067        10.1350          73.08          79.14           8.55
      4068        10.1370          61.94          79.14           7.72
      4069        10.1390          68.78          79.14           8.26
      4070        10.1410          77.77          79.14           8.91
      4071        10.1430          63.85          79.14           7.97
      4072        10.1450          86.81          79.14           9.39
      4073        10.1470          76.44          79.14           8.78
      4074        10.1490          69.92          79.15           8.36
      4075        10.1510          73.09          79.15           8.49
      4076        10.1530          54.34          79.15           7.31
      4077        10.1550          78.40          79.15           8.92
      4078        10.1570          76.53          79.15           8.69
      4079        10.1590          77.77          79.15           8.80
      4080        10.1610          60.47          79.15           7.77
      4081        10.1630          72.74          79.15           8.53
      4082        10.1650          80.09          79.15           8.89
      4083        10.1670          64.36          79.15           7.87
      4084        10.1690          87.61          79.15           9.31
      4085        10.1710          72.52          79.16           8.40
      4086        10.1730          93.59          79.16           9.70
      4087        10.1750          71.87          79.16           8.44
      4088        10.1770          69.81          79.16           8.33
      4089        10.1790          71.59          79.16           8.47
      4090        10.1810          75.93          79.16           8.69
      4091        10.1830          87.17          79.16           9.32
      4092        10.1850          72.46          79.16           8.47
      4093        10.1870          80.17          79.16           8.93
      4094        10.1890          70.85          79.16           8.28
      4095        10.1910          81.52          79.17           8.90
      4096        10.1930          84.38          79.17           9.26
      4097        10.1950          88.23          79.17           9.44
      4098        10.1970          88.61          79.17           9.39
      4099        10.1990          74.64          79.17           8.59
      4100        10.2010          88.15          79.17           9.40
      4101        10.2030          78.01          79.17           8.83
      4102        10.2050          71.84          79.17           8.47
      4103        10.2070          70.20          79.17           8.30
      4104        10.2090          86.11          79.18           9.40
      4105        10.2110          79.97          79.18           8.97
      4106        10.2130          74.26          79.18           8.52
      4107        10.2150          84.79          79.18           9.27
      4108        10.2170          74.63          79.18           8.64
      4109        10.2190          73.26          79.18           8.50
      4110        10.2210          67.74          79.18           8.21
      4111        10.2230          73.62          79.18           8.59
      4112        10.2250          86.47          79.18           9.31
      4113        10.2270          79.52          79.19           8.90
      4114        10.2290          80.79          79.19           9.01
      4115        10.2310          72.35          79.19           8.51
      4116        10.2330          80.90          79.19           9.05
      4117        10.2350          72.48          79.19           8.52
      4118        10.2370          68.91          79.19           8.29
      4119        10.2390          71.50          79.19           8.47
      4120        10.2410          71.67          79.19           8.41
      4121        10.2430          78.24          79.20           8.87
      4122        10.2450          74.53          79.20           8.55
      4123        10.2470          70.26          79.20           8.27
      4124        10.2490          67.06          79.20           8.20
      4125        10.2510          72.25          79.20           8.53
      4126        10.2530          64.31          79.20           7.95
      4127        10.2550          91.77          79.20           9.62
      4128        10.2570          79.74          79.21           8.97
      4129        10.2590          72.77          79.21           8.48
      4130        10.2610          71.31          79.21           8.30
      4131        10.2630          73.50          79.21           8.66
      4132        10.2650          79.85          79.21           8.99
      4133        10.2670          78.39          79.21           8.87
      4134        10.2690          80.31          79.21           9.00
      4135        10.2710          74.09          79.21           8.63
      4136        10.2730          89.12          79.22           9.48
      4137        10.2750          77.07          79.22           8.66
      4138        10.2770          68.96          79.22           8.35
      4139        10.2790          80.59          79.22           9.03
      4140        10.2810          70.11          79.22           8.35
      4141        10.2830          86.58          79.22           9.31
      4142        10.2850          83.21          79.23           9.07
      4143        10.2870          87.32          79.23           9.28
      4144        10.2890          75.87          79.23           8.60
      4145        10.2910          76.11          79.23           8.70
      4146        10.2930          72.21          79.23           8.50
      4147        10.2950          71.13          79.23           8.44
      4148        10.2970          80.27          79.23           8.97
      4149        10.2990          71.32          79.24           8.40
      4150        10.3010          81.56          79.24           9.02
      4151        10.3030          74.27          79.24           8.58
      4152        10.3050          92.44          79.24           9.61
      4153        10.3070          71.72          79.24           8.47
      4154        10.3090          73.76          79.24           8.61
      4155        10.3110          79.44          79.25           8.91
      4156        10.3130          71.24          79.25           8.43
      4157        10.3150          74.86          79.25           8.63
      4158        10.3170          73.07          79.25           8.51
      4159        10.3190          60.68          79.25           7.83
      4160        10.3210          66.34          79.25           8.17
      4161        10.3230          84.74          79.26           9.23
      4162        10.3250          71.69          79.26           8.44
      4163        10.3270          77.18          79.26           8.79
      4164        10.3290          73.53          79.26           8.53
      4165        10.3310          73.84          79.26           8.50
      4166        10.3330          67.59          79.26           8.19
      4167        10.3350          76.91          79.27           8.75
      4168        10.3370          91.76          79.27           9.64
      4169        10.3390          74.93          79.27           8.62
      4170        10.3410          65.56          79.27           8.12
      4171        10.3430          76.96          79.27           8.81
      4172        10.3450          82.31          79.27           9.10
      4173        10.3470          72.36          79.28           8.45
      4174        10.3490          94.33          79.28           9.76
      4175        10.3510          79.62          79.28           8.88
      4176        10.3530          77.45          79.28           8.79
      4177        10.3550          68.28          79.28           8.25
      4178        10.3570          87.39          79.29           9.38
      4179        10.3590          86.85          79.29           9.37
      4180        10.3610          90.52          79.29           9.58
      4181        10.3630          66.80          79.29           8.19
      4182        10.3650          76.47          79.29           8.75
      4183        10.3670          87.05          79.29           9.37
      4184        10.3690          71.98          79.30           8.44
      4185        10.3710          87.85          79.30           9.36
      4186        10.3730          77.06          79.30           8.83
      4187        10.3750          72.26          79.30           8.55
      4188        10.3770          92.59          79.30           9.65
      4189        10.3790          86.52          79.31           9.28
      4190        10.3810          77.66          79.31           8.81
      4191        10.3830          80.07          79.31           8.94
      4192        10.3850          70.44          79.31           8.32
      4193        10.3870          76.49          79.31           8.75
      4194        10.3890          72.02          79.32           8.48
      4195        10.3910          82.98          79.32           9.16
      4196        10.3930          66.50          79.32           8.16
      4197        10.3950          73.23          79.32           8.46
      4198        10.3970          78.35          79.32           8.71
      4199        10.3990          66.21          79.33           8.11
      4200        10.4010          74.45          79.33           8.61
      4201        10.4030          88.56          79.33           9.43
      4202        10.4050          74.10          79.33           8.63
      4203        10.4070          82.42          79.33           9.07
      4204        10.4090          70.30          79.34           8.38
      4205        10.4110          74.12          79.34           8.61
      4206        10.4130          82.11          79.34           9.04
      4207        10.4150          87.64          79.34           9.29
      4208        10.4170          64.01          79.34           7.91
      4209        10.4190          82.37          79.35           9.05
      4210        10.4210          91.35          79.35           9.60
      4211        10.4230          77.34          79.35           8.73
      4212        10.4250          79.70          79.35           8.94
      4213        10.4270          87.86          79.35           9.37
      4214        10.4290          68.75          79.36           8.22
      4215        10.4310          79.06          79.36           8.91
      4216        10.4330          76.07          79.36           8.69
      4217        10.4350          84.06          79.36           9.11
      4218        10.4370          72.44          79.37           8.40
      4219        10.4390          89.94          79.37           9.48
      4220        10.4410          81.65          79.37           8.95
      4221        10.4430          73.13          79.37           8.55
      4222        10.4450          86.49          79.37           9.27
      4223        10.4470          79.80          79.38           8.89
      4224        10.4490          84.56          79.38           9.16
      4225        10.4510          82.23          79.38           9.03
      4226        10.4530          81.91          79.38           9.02
      4227        10.4550          81.61          79.39           9.04
      4228        10.4570          69.91          79.39           8.31
      4229        10.4590          74.00          79.39           8.66
      4230        10.4610          82.12          79.39           9.06
      4231        10.4630          82.89          79.39           9.01
      4232        10.4650         100.55          79.40          10.02
      4233        10.4670          79.69          79.40           8.90
      4234        10.4690          75.41          79.40           8.57
      4235        10.4710          75.12          79.40           8.64
      4236        10.4730          76.02          79.41           8.73
      4237        10.4750          65.55          79.41           8.03
      4238        10.4770          68.57          79.41           8.23
      4239        10.4790          78.31          79.41           8.82
      4240        10.4810          80.63          79.42           8.98
      4241        10.4830          92.85          79.42           9.61
      4242        10.4850          80.06          79.42           8.88
      4243        10.4870          83.26          79.42           9.13
      4244        10.4890          87.94          79.42           9.37
      4245        10.4910          84.37          79.43           9.17
      4246        10.4930          80.62          79.43           9.02
      4247        10.4950          80.19          79.43           8.91
      4248        10.4970          71.02          79.43           8.34
      4249        10.4990          93.16          79.44           9.71
      4250        10.5010          88.92          79.44           9.51
      4251        10.5030          83.75          79.44           9.16
      4252        10.5050          82.13          79.44           9.07
      4253        10.5070          69.20          79.45           8.37
      4254        10.5090          69.66          79.45           8.37
      4255        10.5110          68.80          79.45           8.25
      4256        10.5130          82.72          79.45           9.04
      4257        10.5150          73.20          79.46           8.51
      4258        10.5170          88.71          79.46           9.40
      4259        10.5190          77.33          79.46           8.78
      4260        10.5210          78.71          79.46           8.89
      4261        10.5230          72.79          79.47           8.45
      4262        10.5250          76.41          79.47           8.75
      4263        10.5270          81.94          79.47           9.06
      4264        10.5290          85.28          79.47           9.16
      4265        10.5310          72.06          79.48           8.39
      4266        10.5330          69.25          79.48           8.30
      4267        10.5350          89.17          79.48           9.52
      4268        10.5370          71.87          79.48           8.40
      4269        10.5390          82.84          79.49           9.10
      4270        10.5410          96.27          79.49           9.81
      4271        10.5430          90.10          79.49           9.41
      4272        10.5450          90.57          79.49           9.51
      4273        10.5470          81.04          79.50           9.01
      4274        10.5490          81.36          79.50           9.03
      4275        10.5510          73.47          79.50           8.53
      4276        10.5530          78.80          79.51           8.85
      4277        10.5550          95.97          79.51           9.83
      4278        10.5570          73.65          79.51           8.58
      4279        10.5590          66.68          79.51           8.21
      4280        10.5610          69.61          82.10           8.28
      4281        10.5630          80.46          82.20           8.92
      4282        10.5650          74.18          82.30           8.55
      4283        10.5670          85.15          82.42           9.28
      4284        10.5690          72.31          82.54           8.46
      4285        10.5710          95.59          82.66           9.76
      4286        10.5730          81.46          82.80           8.96
      4287        10.5750          85.62          82.94           9.22
      4288        10.5770          74.28          83.10           8.50
      4289        10.5790          87.14          83.26           9.28
      4290        10.5810          89.21          83.43           9.51
      4291        10.5830          95.93          83.62           9.78
      4292        10.5850         100.59          83.82           9.97
      4293        10.5870          93.67          84.03           9.64
      4294        10.5890          96.43          84.26           9.78
      4295        10.5910          85.95          84.51           9.25
      4296        10.5930          78.31          84.78           8.85
      4297        10.5950          93.14          85.07           9.66
      4298        10.5970          92.59          85.38           9.57
      4299        10.5990         102.32          85.72          10.12
      4300        10.6010          94.68          86.09           9.65
      4301        10.6030          87.52          86.50           9.27
      4302        10.6050          92.22          86.94           9.56
      4303        10.6070         111.87          87.43          10.65
      4304        10.6090          94.52          87.96           9.69
      4305        10.6110          89.29          88.55           9.48
      4306        10.6130         108.53          89.21          10.36
      4307        10.6150         102.70          89.94          10.01
      4308        10.6170         116.22          90.76          10.83
      4309        10.6190          98.35          91.67           9.89
      4310        10.6210          92.17          92.71           9.47
      4311        10.6230          85.69          93.88           9.07
      4312        10.6250         114.33          95.21          10.64
      4313        10.6270          99.35          96.74          10.02
      4314        10.6290          93.31          98.50           9.66
      4315        10.6310          99.01         100.54           9.89
      4316        10.6330         108.32         102.94          10.39
      4317        10.6350         119.10         105.77          10.89
      4318        10.6370         117.81         109.14          10.83
      4319        10.6390         132.81         113.21          11.51
      4320        10.6410         128.73         118.19          11.29
      4321        10.6430         131.04         124.34          11.40
      4322        10.6450         160.97         132.10          12.72
      4323        10.6470         134.34         142.03          11.52
      4324        10.6490         171.71         155.06          13.06
      4325        10.6510         184.35         172.61          13.44
      4326        10.6530         209.63         197.00          14.35
      4327        10.6550         235.40         232.26          15.17
      4328        10.6570         313.96         285.77          17.41
      4329        10.6590         448.63         372.37          20.73
      4330        10.6610         716.06         526.53          25.71
      4331        10.6630        1470.74         850.56          36.39
      4332        10.6650        2743.55        1657.48          50.32
      4333        10.6670        3691.47        3472.48          59.24
      4334        10.6690        4255.82        4823.09          65.90
      4335        10.6710        2978.19        2926.64          56.03
      4336        10.6730        1240.29        1385.71          35.99
      4337        10.6750         683.15         743.94          26.49
      4338        10.6770         439.78         479.01          21.14
      4339        10.6790         285.51         346.77          16.94
      4340        10.6810         243.98         270.35          15.68
      4341        10.6830         180.74         222.31          13.46
      4342        10.6850         199.55         190.26          14.16
      4343        10.6870         161.32         167.84          12.66
      4344        10.6890         139.72         151.58          11.69
      4345        10.6910         135.89         139.42          11.64
      4346        10.6930         135.15         130.09          11.62
      4347        10.6950         138.22         122.79          11.74
      4348        10.6970         126.09         116.96          11.13
      4349        10.6990         119.32         112.24          10.86
      4350        10.7010         119.93         108.36          10.88
      4351        10.7030         119.98         105.14          10.95
      4352        10.7050          85.23         102.43           9.26
      4353        10.7070          94.00         100.13           9.70
      4354        10.7090         100.25          98.16           9.99
      4355        10.7110         106.21          96.47          10.30
      4356        10.7130          91.43          95.00           9.46
      4357        10.7150         100.71          93.72           9.96
      4358        10.7170         116.23          92.59          10.81
      4359        10.7190          93.87          91.59           9.73
      4360        10.7210          87.00          90.71           9.27
      4361        10.7230          86.64          89.92           9.19
      4362        10.7250          96.67          89.22           9.73
      4363        10.7270         113.72          88.58          10.63
      4364        10.7290         106.26          88.01          10.26
      4365        10.7310          91.55          87.50           9.51
      4366        10.7330         102.38          87.03          10.06
      4367        10.7350          85.93          86.60           9.22
      4368        10.7370          82.44          86.21           8.99
      4369        10.7390          84.27          85.85           9.16
      4370        10.7410          85.24          85.52           9.20
      4371        10.7430         121.72          85.22          11.07
      4372        10.7450          94.50          84.94           9.69
      4373        10.7470          96.15          84.69           9.81
      4374        10.7490          98.72          84.45           9.88
      4375        10.7510          85.95          84.23           9.28
      4376        10.7530         103.10          84.03          10.18
      4377        10.7550          89.19          83.84           9.44
      4378        10.7570          84.72          83.66           9.16
      4379        10.7590          98.36          83.50           9.93
      4380        10.7610          77.16          83.34           8.70
      4381        10.7630          91.70          83.20           9.64
      4382        10.7650          92.63          83.06           9.59
      4383        10.7670          85.55          82.93           9.16
      4384        10.7690          75.67          82.82           8.69
      4385        10.7710          79.85          82.70           8.87
      4386        10.7730          78.88          82.60           8.83
      4387        10.7750         105.39          82.50          10.30
      4388        10.7770          73.72          79.85           8.46
      4389        10.7790          94.84          79.85           9.66
      4390        10.7810          84.75          79.85           9.06
      4391        10.7830          89.75          79.86           9.44
      4392        10.7850          85.37          79.86           9.31
      4393        10.7870          74.04          79.86           8.65
      4394        10.7890          63.80          79.87           7.95
      4395        10.7910          82.12          79.87           9.05
      4396        10.7930          70.85          79.88           8.37
      4397        10.7950          64.58          79.88           7.98
      4398        10.7970          76.01          79.88           8.72
      4399        10.7990          70.44          79.89           8.38
      4400        10.8010          80.15          79.89           8.94
      4401        10.8030          73.02          79.89           8.53
      4402        10.8050          83.89          79.90           9.14
      4403        10.8070          79.17          79.90           8.82
      4404        10.8090          97.77          79.90           9.88
      4405        10.8110          93.90          79.91           9.67
      4406        10.8130          71.39          79.91           8.40
      4407        10.8150          81.84          79.91           9.06
      4408        10.8170          68.20          79.92           8.19
      4409        10.8190          78.32          79.92           8.86
      4410        10.8210          83.64          79.92           9.12
      4411        10.8230          83.08          79.93           9.10
      4412        10.8250          79.62          79.93           8.88
      4413        10.8270          97.16          79.94           9.85
      4414        10.8290          87.72          79.94           9.27
      4415        10.8310          95.48          79.94           9.88
      4416        10.8330          90.46          79.95           9.51
      4417        10.8350          93.39          79.95           9.65
      4418        10.8370          87.26          79.95           9.37
      4419        10.8390          73.32          79.96           8.44
      4420        10.8410          85.10          79.96           9.18
      4421        10.8430          92.83          79.96           9.65
      4422        10.8450          86.25          79.97           9.26
      4423        10.8470          88.19          79.97           9.35
      4424        10.8490          88.99          79.97           9.43
      4425        10.8510          91.29          79.98           9.51
      4426        10.8530          77.66          79.98           8.74
      4427        10.8550          82.61          79.99           9.05
      4428        10.8570          81.11          79.99           8.98
      4429        10.8590          65.39          79.99           7.92
      4430        10.8610          76.83          80.00           8.73
      4431        10.8630          84.44          80.00           9.09
      4432        10.8650          85.57          80.00           9.19
      4433        10.8670          81.38          80.01           9.00
      4434        10.8690          73.45          80.01           8.52
      4435        10.8710          90.99          80.01           9.48
      4436        10.8730          84.07          80.02           9.08
      4437        10.8750          94.99          80.02           9.66
      4438        10.8770          84.14          80.03           9.13
      4439        10.8790          65.31          80.03           8.01
      4440        10.8810          79.21          80.03           8.86
      4441        10.8830          66.22          80.04           8.08
      4442        10.8850          90.66          80.04           9.57
      4443        10.8870          85.79          80.04           9.25
      4444        10.8890          79.34          80.05           8.90
      4445        10.8910          69.95          80.05           8.28
      4446        10.8930          90.36          80.06           9.44
      4447        10.8950          81.49          80.06           8.88
      4448        10.8970          78.56          80.06           8.78
      4449        10.8990          82.27          80.07           9.08
      4450        10.9010          91.38          80.07           9.55
      4451        10.9030          85.29          80.07           9.19
      4452        10.9050          83.11          80.08           9.06
      4453        10.9070          87.69          80.08           9.40
      4454        10.9090          80.75          80.09           8.88
      4455        10.9110          92.73          80.09           9.58
      4456        10.9130          83.08          80.09           9.13
      4457        10.9150          73.02          80.10           8.55
      4458        10.9170          77.31          80.10           8.85
      4459        10.9190          85.45          80.10           9.28
      4460        10.9210          88.03          80.11           9.36
      4461        10.9230          91.28          80.11           9.60
      4462        10.9250          68.50          80.12           8.19
      4463        10.9270          79.86          80.12           8.92
      4464        10.9290          84.55          80.12           9.14
      4465        10.9310          77.51          80.13           8.78
      4466        10.9330          82.90          80.13           9.01
      4467        10.9350          87.87          80.13           9.31
      4468        10.9370          78.02          80.14           8.81
      4469        10.9390          80.62          80.14           8.96
      4470        10.9410          76.42          80.15           8.68
      4471        10.9430          84.94          80.15           9.19
      4472        10.9450          78.20          80.15           8.74
      4473        10.9470          83.05          80.16           9.06
      4474        10.9490          76.41          80.16           8.61
      4475        10.9510          78.68          80.17           8.86
      4476        10.9530          98.54          80.17           9.96
      4477        10.9550          83.86          80.17           9.11
      4478        10.9570          71.56          80.18           8.45
      4479        10.9590          90.45          80.18           9.50
      4480        10.9610          88.15          80.18           9.28
      4481        10.9630          93.88          80.19           9.63
      4482        10.9650          85.50          80.19           9.13
      4483        10.9670          81.37          80.20           8.97
      4484        10.9690          77.77          80.20           8.76
      4485        10.9710          74.91          80.20           8.60
      4486        10.9730          90.76          80.21           9.58
      4487        10.9750          86.58          80.21           9.31
      4488        10.9770          83.14          80.22           9.05
      4489        10.9790          85.48          80.22           9.22
      4490        10.9810          64.00          80.22           7.92
      4491        10.9830          93.08          80.23           9.71
      4492        10.9850          80.20          80.23           8.92
      4493        10.9870          73.97          80.24           8.52
      4494        10.9890          85.92          80.24           9.17
      4495        10.9910          94.40          80.24           9.64
      4496        10.9930          91.22          80.25           9.56
      4497        10.9950          89.45          80.25           9.42
      4498        10.9970          71.84          80.26           8.50
      4499        10.9990          73.13          80.26           8.50
      4500        11.0010          77.00          80.26           8.72
      4501        11.0030          78.67          80.27           8.82
      4502        11.0050          91.18          80.27           9.51
      4503        11.0070          96.48          80.27           9.87
      4504        11.0090          69.62          80.28           8.21
      4505        11.0110         101.06          80.28          10.04
      4506        11.0130          84.24          80.29           9.17
      4507        11.0150          84.54          80.29           9.16
      4508        11.0170          88.43          80.29           9.34
      4509        11.0190          82.47          80.30           9.03
      4510        11.0210          76.74          80.30           8.71
      4511        11.0230          90.93          80.31           9.49
      4512        11.0250          79.39          80.31           8.84
      4513        11.0270          69.19          80.31           8.22
      4514        11.0290          85.08          80.32           9.19
      4515        11.0310          78.29          80.32           8.76
      4516        11.0330          80.61          80.33           8.93
      4517        11.0350          88.22          80.33           9.35
      4518        11.0370          81.59          80.33           8.92
      4519        11.0390          79.41          80.34           8.84
      4520        11.0410          87.72          80.34           9.35
      4521        11.0430          87.06          80.35           9.33
      4522        11.0450          78.90          80.35           8.81
      4523        11.0470          84.66          80.35           9.21
      4524        11.0490          92.36          80.36           9.66
      4525        11.0510          86.28          80.36           9.29
      4526        11.0530          85.08          80.37           9.21
      4527        11.0550          74.11          80.37           8.56
      4528        11.0570          74.80          80.37           8.62
      4529        11.0590          82.83          80.38           9.08
      4530        11.0610          83.08          80.38           9.04
      4531        11.0630          83.24          80.39           9.02
      4532        11.0650          72.92          80.39           8.46
      4533        11.0670          81.74          80.39           8.98
      4534        11.0690          80.03          80.40           8.92
      4535        11.0710          93.73          80.40           9.72
      4536        11.0730          88.59          80.41           9.42
      4537        11.0750          98.49          80.41           9.87
      4538        11.0770          99.57          80.41           9.91
      4539        11.0790          89.00          80.42           9.42
      4540        11.0810          79.22          80.42           8.79
      4541        11.0830          89.40          80.43           9.37
      4542        11.0850          75.34          80.43           8.66
      4543        11.0870          90.21          80.43           9.44
      4544        11.0890          83.39          80.44           9.03
      4545        11.0910          85.31          80.44           9.13
      4546        11.0930          93.21          80.45           9.68
      4547        11.0950          86.36          80.45           9.30
      4548        11.0970          86.08          80.46           9.29
      4549        11.0990          98.27          80.46           9.95
      4550        11.1010          89.95          80.46           9.49
      4551        11.1030          96.36          80.47           9.83
      4552        11.1050          79.59          80.47           8.86
      4553        11.1070          84.35          80.48           9.09
      4554        11.1090          75.35          80.48           8.59
      4555        11.1110          82.60          80.48           8.99
      4556        11.1130          82.43          80.49           9.09
      4557        11.1150          78.31          80.49           8.81
      4558        11.1170         101.30          80.50          10.07
      4559        11.1190          87.54          80.50           9.26
      4560        11.1210          90.89          80.50           9.44
      4561        11.1230         101.72          80.51          10.07
      4562        11.1250          86.17          80.51           9.29
      4563        11.1270          78.75          80.52           8.79
      4564        11.1290          90.45          80.52           9.45
      4565        11.1310          89.88          80.52           9.53
      4566        11.1330          87.11          80.53           9.27
      4567        11.1350          91.29          80.53           9.47
      4568        11.1370          92.53          80.54           9.55
      4569        11.1390          87.83          80.54           9.31
      4570        11.1410          91.96          80.54           9.55
      4571        11.1430         101.88          80.55          10.10
      4572        11.1450          72.06          80.55           8.44
      4573        11.1470          80.60          80.56           8.97
      4574        11.1490          84.62          80.56           9.15
      4575        11.1510          91.92          80.57           9.63
      4576        11.1530          75.50          80.57           8.60
      4577        11.1550          99.27          80.57           9.94
      4578        11.1570          89.13          80.58           9.39
      4579        11.1590          83.69          80.58           9.09
      4580        11.1610          73.52          80.59           8.46
      4581        11.1630          83.45          80.59           9.09
      4582        11.1650          89.33          80.59           9.45
      4583        11.1670          82.83          80.60           9.00
      4584        11.1690          88.34          80.60           9.32
      4585        11.1710          84.87          80.61           9.14
      4586        11.1730          80.03          80.61           8.91
      4587        11.1750          83.13          80.61           9.08
      4588        11.1770          96.48          80.62           9.82
      4589        11.1790         101.34          80.62          10.09
      4590        11.1810          90.58          80.63           9.42
      4591        11.1830          84.22          80.63           9.12
      4592        11.1850          82.25          80.63           9.04
      4593        11.1870          87.14          80.64           9.34
      4594        11.1890          86.09          80.64           9.24
      4595        11.1910          82.00          80.65           9.03
      4596        11.1930          92.07          80.65           9.58
      4597        11.1950          89.14          80.66           9.37
      4598        11.1970          98.75          80.66           9.91
      4599        11.1990          80.92          81.54           9.01
      4600        11.2010          79.83          81.57           8.91
      4601        11.2030          84.11          81.61           9.11
      4602        11.2050          88.97          81.64           9.39
      4603        11.2070          90.37          81.68           9.51
      4604        11.2090          79.72          81.73           8.84
      4605        11.2110          86.66          81.77           9.29
      4606        11.2130          94.04          81.81           9.65
      4607        11.2150          86.17          81.86           9.17
      4608        11.2170          77.00          81.91           8.71
      4609        11.2190          92.25          81.97           9.56
      4610        11.2210          74.48          82.02           8.57
      4611        11.2230          88.39          82.08           9.43
      4612        11.2250          76.39          82.15           8.74
      4613        11.2270          72.62          82.21           8.45
      4614        11.2290          89.57          82.29           9.41
      4615        11.2310          92.88          82.36           9.55
      4616        11.2330          73.71          82.45           8.57
      4617        11.2350          87.48          82.53           9.32
      4618        11.2370          74.80          82.63           8.53
      4619        11.2390          94.66          82.73           9.71
      4620        11.2410          83.87          82.84           9.07
      4621        11.2430          81.48          82.95           9.09
      4622        11.2450          72.74          83.08           8.49
      4623        11.2470          81.48          83.22           9.00
      4624        11.2490          81.38          83.36           8.91
      4625        11.2510          83.13          83.52           9.11
      4626        11.2530          77.13          83.70           8.79
      4627        11.2550          75.91          83.89           8.71
      4628        11.2570          81.71          84.10           8.98
      4629        11.2590          76.63          84.34           8.64
      4630        11.2610          99.40          84.59           9.92
      4631        11.2630          91.26          84.88           9.53
      4632        11.2650          77.56          85.20           8.75
      4633        11.2670          92.84          85.55           9.65
      4634        11.2690          93.61          85.95           9.69
      4635        11.2710          81.63          86.40           9.01
      4636        11.2730          93.25          86.91           9.61
      4637        11.2750         107.92          87.49          10.37
      4638        11.2770          93.62          88.16           9.72
      4639        11.2790         103.63          88.94          10.20
      4640        11.2810          92.12          89.83           9.59
      4641        11.2830          93.24          90.89           9.61
      4642        11.2850          98.94          92.14           9.88
      4643        11.2870          94.37          93.64           9.60
      4644        11.2890         100.07          95.46           9.93
      4645        11.2910         114.57          97.68          10.69
      4646        11.2930          92.35         100.45           9.45
      4647        11.2950         112.88         103.96          10.52
      4648        11.2970         108.77         108.49          10.40
      4649        11.2990         112.24         114.49          10.63
      4650        11.3010          90.97         122.63           9.37
      4651        11.3030         137.32         134.10          11.66
      4652        11.3050         128.22         150.90          11.13
      4653        11.3070         163.84         176.89          12.63
      4654        11.3090         213.55         220.50          14.51
      4655        11.3110         274.39         305.74          16.32
      4656        11.3130         420.37         505.52          19.87
      4657        11.3150         808.33         963.88          27.25
      4658        11.3170        1411.62        1659.67          36.67
      4659        11.3190        1816.00        1629.00          42.50
      4660        11.3210        1273.06         931.59          36.29
      4661        11.3230         628.78         490.19          25.38
      4662        11.3250         346.73         299.42          18.65
      4663        11.3270         242.99         217.57          15.63
      4664        11.3290         186.58         175.25          13.69
      4665        11.3310         160.04         149.90          12.64
      4666        11.3330         147.69         133.45          12.18
      4667        11.3350         133.29         122.21          11.50
      4668        11.3370         119.38         114.20          10.88
      4669        11.3390         106.28         108.31          10.17
      4670        11.3410         117.93         103.85          10.87
      4671        11.3430          98.11         100.39           9.90
      4672        11.3450         112.28          97.66          10.59
      4673        11.3470         101.00          95.47          10.04
      4674        11.3490          89.74          93.68           9.41
      4675        11.3510          80.27          92.20           8.90
      4676        11.3530          87.87          90.97           9.42
      4677        11.3550          85.61          89.93           9.24
      4678        11.3570         114.17          89.05          10.69
      4679        11.3590         110.98          88.29          10.48
      4680        11.3610          98.12          87.63           9.89
      4681        11.3630          91.49          87.06           9.49
      4682        11.3650          90.99          86.56           9.55
      4683        11.3670          86.17          86.13           9.23
      4684        11.3690         100.85          85.74          10.02
      4685        11.3710          97.26          85.39           9.90
      4686        11.3730          90.75          85.09           9.56
      4687        11.3750          84.12          84.81           9.17
      4688        11.3770          94.78          84.56           9.71
      4689        11.3790          98.14          84.34           9.95
      4690        11.3810          99.50          84.14          10.02
      4691        11.3830          89.08          83.95           9.39
      4692        11.3850          87.53          83.78           9.30
      4693        11.3870          80.39          83.63           8.92
      4694        11.3890          83.10          83.49           9.07
      4695        11.3910          82.09          83.36           9.00
      4696        11.3930          84.15          83.25           9.09
      4697        11.3950          83.35          83.14           9.00
      4698        11.3970         102.30          83.04          10.02
      4699        11.3990          76.51          82.95           8.64
      4700        11.4010          77.68          82.86           8.82
      4701        11.4030          68.36          82.78           8.13
      4702        11.4050          93.50          82.71           9.62
      4703        11.4070          84.74          82.64           9.24
      4704        11.4090          69.10          82.58           8.20
      4705        11.4110          71.26          82.52           8.41
      4706        11.4130          89.87          82.46           9.45
      4707        11.4150         100.23          82.41           9.91
      4708        11.4170         103.54          82.36          10.07
      4709        11.4190          82.58          82.31           8.95
      4710        11.4210         108.22          82.27          10.31
      4711        11.4230          86.18          82.23           9.21
      4712        11.4250          72.33          82.19           8.46
      4713        11.4270          81.85          82.16           9.01
      4714        11.4290          85.60          82.13           9.29
      4715        11.4310          84.06          82.09           9.10
      4716        11.4330          91.80          82.06           9.52
      4717        11.4350          86.71          82.04           9.27
      4718        11.4370          87.03          82.01           9.28
      4719        11.4390          91.41          81.14           9.57
      4720        11.4410          85.59          81.15           9.27
      4721        11.4430          81.72          81.15           9.04
      4722        11.4450          69.06          81.15           8.28
      4723        11.4470          81.16          81.16           8.94
      4724        11.4490         109.46          81.16          10.47
      4725        11.4510          96.59          81.16           9.79
      4726        11.4530         103.50          81.17          10.15
      4727        11.4550          85.29          81.17           9.15
      4728        11.4570          79.99          81.18           8.95
      4729        11.4590          83.95          81.18           9.20
      4730        11.4610          69.29          81.18           8.31
      4731        11.4630          72.03          81.19           8.46
      4732        11.4650          93.09          81.19           9.64
      4733        11.4670         100.41          81.19          10.06
      4734        11.4690          85.44          81.20           9.15
      4735        11.4710          83.85          81.20           8.99
      4736        11.4730          85.06          81.21           9.23
      4737        11.4750          69.66          81.21           8.28
      4738        11.4770          60.54          81.21           7.70
      4739        11.4790          79.63          81.22           8.90
      4740        11.4810          87.25          81.22           9.35
      4741        11.4830          86.14          81.22           9.23
      4742        11.4850          87.84          81.23           9.24
      4743        11.4870          98.97          81.23           9.87
      4744        11.4890          86.41          81.23           9.18
      4745        11.4910          92.57          81.24           9.61
      4746        11.4930          79.00          81.24           8.78
      4747        11.4950          82.77          81.25           9.07
      4748        11.4970          80.37          81.25           8.84
      4749        11.4990          65.85          81.25           7.93
      4750        11.5010          95.30          81.26           9.71
      4751        11.5030          73.51          81.26           8.55
      4752        11.5050          88.65          81.26           9.42
      4753        11.5070          81.26          81.27           8.97
      4754        11.5090          79.01          81.27           8.88
      4755        11.5110          83.89          81.27           9.14
      4756        11.5130          86.12          81.28           9.24
      4757        11.5150          84.73          81.28           9.15
      4758        11.5170          72.22          81.29           8.43
      4759        11.5190          82.34          81.29           9.04
      4760        11.5210          76.14          81.29           8.68
      4761        11.5230          84.75          81.30           9.20
      4762        11.5250          65.82          81.30           8.12
      4763        11.5270          73.85          81.30           8.66
      4764        11.5290          81.64          81.31           9.01
      4765        11.5310          85.38          81.31           9.12
      4766        11.5330         103.85          81.31          10.23
      4767        11.5350          86.58          81.32           9.29
      4768        11.5370          84.80          81.32           9.14
      4769        11.5390          87.74          81.32           9.36
      4770        11.5410          92.80          81.33           9.73
      4771        11.5430          81.52          81.33           9.04
      4772        11.5450          78.33          81.33           8.78
      4773        11.5470          89.80          81.34           9.37
      4774        11.5490          91.82          81.34           9.53
      4775        11.5510          84.55          81.35           9.15
      4776        11.5530          83.73          81.35           9.06
      4777        11.5550          87.64          81.35           9.25
      4778        11.5570          74.30          81.36           8.52
      4779        11.5590          89.11          81.36           9.30
      4780        11.5610          91.34          81.36           9.54
      4781        11.5630          90.41          81.37           9.57
      4782        11.5650          94.96          81.37           9.78
      4783        11.5670          95.48          81.37           9.77
      4784        11.5690          82.32          81.38           9.05
      4785        11.5710          87.41          81.38           9.40
      4786        11.5730          91.68          81.38           9.55
      4787        11.5750          76.10          81.39           8.68
      4788        11.5770          65.73          81.39           8.04
      4789        11.5790          91.26          81.39           9.54
      4790        11.5810          87.35          81.40           9.25
      4791        11.5830          70.22          81.40           8.26
      4792        11.5850          93.95          81.40           9.66
      4793        11.5870          92.29          81.41           9.60
      4794        11.5890          88.51          81.41           9.38
      4795        11.5910          85.55          81.41           9.23
      4796        11.5930          74.65          81.42           8.56
      4797        11.5950          70.88          81.42           8.35
      4798        11.5970          79.62          81.42           8.90
      4799        11.5990          83.00          81.43           9.11
      4800        11.6010          82.02          81.43           9.08
      4801        11.6030          78.46          81.43           8.86
      4802        11.6050          91.20          81.44           9.60
      4803        11.6070          75.41          81.44           8.58
      4804        11.6090          92.70          81.44           9.62
      4805        11.6110          64.62          81.44           7.83
      4806        11.6130          78.07          81.45           8.71
      4807        11.6150          78.98          81.45           8.85
      4808        11.6170          92.12          81.45           9.55
      4809        11.6190          87.62          81.46           9.33
      4810        11.6210          67.03          81.46           8.13
      4811        11.6230          81.14          81.46           8.93
      4812        11.6250          77.69          81.47           8.67
      4813        11.6270          76.75          81.47           8.74
      4814        11.6290          84.33          81.47           9.20
      4815        11.6310          71.99          81.48           8.45
      4816        11.6330          69.97          81.48           8.27
      4817        11.6350          84.98          81.48           9.23
      4818        11.6370          81.17          81.49           8.96
      4819        11.6390          79.46          81.49           8.84
      4820        11.6410          81.43          81.49           8.97
      4821        11.6430          82.35          81.50           9.00
      4822        11.6450          82.06          81.50           9.05
      4823        11.6470          69.74          81.50           8.30
      4824        11.6490          84.74          81.50           9.16
      4825        11.6510          84.59          81.51           9.15
      4826        11.6530          90.38          81.51           9.52
      4827        11.6550          79.80          81.51           8.82
      4828        11.6570          93.70          81.52           9.65
      4829        11.6590          81.13          81.52           8.96
      4830        11.6610          78.37          81.52           8.85
      4831        11.6630          72.65          81.53           8.56
      4832        11.6650          72.68          81.53           8.46
      4833        11.6670          91.18          81.53           9.48
      4834        11.6690          87.70          81.53           9.26
      4835        11.6710          88.26          81.54           9.37
      4836        11.6730          79.03          81.54           8.84
      4837        11.6750          81.25          81.54           9.02
      4838        11.6770          73.38          81.55           8.56
      4839        11.6790          89.53          81.55           9.58
      4840        11.6810         101.58          81.55          10.13
      4841        11.6830          90.13          81.55           9.39
      4842        11.6850          82.47          81.56           9.00
      4843        11.6870          81.23          81.56           8.93
      4844        11.6890          77.80          81.56           8.74
      4845        11.6910          86.06          81.57           9.21
      4846        11.6930          82.73          81.57           9.02
      4847        11.6950          70.10          81.57           8.31
      4848        11.6970          83.65          81.57           9.10
      4849        11.6990          88.53          81.58           9.38
      4850        11.7010          78.27          81.58           8.80
      4851        11.7030          87.73          81.58           9.35
      4852        11.7050          74.58          81.59           8.63
      4853        11.7070          85.12          81.59           9.22
      4854        11.7090          89.44          81.59           9.41
      4855        11.7110          71.25          81.59           8.35
      4856        11.7130          93.00          81.60           9.68
      4857        11.7150          71.96          81.60           8.43
      4858        11.7170          85.30          81.60           9.18
      4859        11.7190          93.05          81.60           9.65
      4860        11.7210          87.82          81.61           9.38
      4861        11.7230          67.88          81.61           8.16
      4862        11.7250          77.27          81.61           8.74
      4863        11.7270          86.15          81.61           9.26
      4864        11.7290          88.12          81.62           9.29
      4865        11.7310          76.64          81.62           8.68
      4866        11.7330          78.22          81.62           8.74
      4867        11.7350          72.70          81.63           8.45
      4868        11.7370          68.05          81.63           8.24
      4869        11.7390          79.40          81.63           8.92
      4870        11.7410          75.22          81.63           8.64
      4871        11.7430          91.08          81.64           9.52
      4872        11.7450          92.55          81.64           9.58
      4873        11.7470          87.76          81.64           9.25
      4874        11.7490          96.27          81.64           9.66
      4875        11.7510          87.40          81.65           9.21
      4876        11.7530          68.63          81.65           8.19
      4877        11.7550          78.50          81.65           8.82
      4878        11.7570          74.89          81.65           8.64
      4879        11.7590          93.14          81.66           9.62
      4880        11.7610          80.46          81.66           9.01
      4881        11.7630          77.02          81.66           8.76
      4882        11.7650          80.09          81.66           8.88
      4883        11.7670          85.37          81.67           9.20
      4884        11.7690          81.99          81.67           9.03
      4885        11.7710          78.06          81.67           8.82
      4886        11.7730          80.41          81.67           8.96
      4887        11.7750          62.62          81.68           7.82
      4888        11.7770          70.23          81.68           8.31
      4889        11.7790          94.14          81.68           9.67
      4890        11.7810          83.49          81.68           9.11
      4891        11.7830          94.58          81.68           9.68
      4892        11.7850          91.55          81.69           9.52
      4893        11.7870          86.71          81.69           9.23
      4894        11.7890          81.31          81.69           8.99
      4895        11.7910          83.38          81.69           9.06
      4896        11.7930          78.34          81.70           8.78
      4897        11.7950          67.01          81.70           8.16
      4898        11.7970          85.74          81.70           9.26
      4899        11.7990          78.57          81.70           8.81
      4900        11.8010          95.56          81.70           9.75
      4901        11.8030          97.61          81.96           9.87
      4902        11.8050          80.75          81.97           8.93
      4903        11.8070          70.19          81.98           8.26
      4904        11.8090          73.35          81.99           8.48
      4905        11.8110          84.32          82.00           9.14
      4906        11.8130          74.88          82.01           8.55
      4907        11.8150          78.59          82.02           8.80
      4908        11.8170          76.65          82.03           8.69
      4909        11.8190          98.25          82.05           9.87
      4910        11.8210          74.60          82.06           8.61
      4911        11.8230          66.21          82.08           8.02
      4912        11.8250          87.34          82.09           9.38
      4913        11.8270          84.75          82.11           9.16
      4914        11.8290          80.56          82.12           8.90
      4915        11.8310          83.01          82.14           9.02
      4916        11.8330          85.31          82.16           9.19
      4917        11.8350          83.23          82.18           9.12
      4918        11.8370          80.17          82.20           8.97
      4919        11.8390          81.06          82.22           8.89
      4920        11.8410          98.32          82.24           9.84
      4921        11.8430          80.41          82.27           8.89
      4922        11.8450          71.16          82.29           8.36
      4923        11.8470          85.64          82.32           9.27
      4924        11.8490          92.97          82.35           9.64
      4925        11.8510          81.10          82.38           8.88
      4926        11.8530          93.34          82.42           9.60
      4927        11.8550          77.11          82.45           8.73
      4928        11.8570          78.29          82.49           8.80
      4929        11.8590          88.75          82.54           9.41
      4930        11.8610          92.71          82.58           9.65
      4931        11.8630          82.89          82.63           9.03
      4932        11.8650          86.14          82.68           9.20
      4933        11.8670          88.87          82.74           9.41
      4934        11.8690          96.82          82.81           9.93
      4935        11.8710          81.64          82.88           9.03
      4936        11.8730          83.35          82.95           9.08
      4937        11.8750          89.24          83.04           9.44
      4938        11.8770          81.93          83.13           8.99
      4939        11.8790          89.36          83.24           9.40
      4940        11.8810          78.48          83.36           8.80
      4941        11.8830          79.79          83.49           8.90
      4942        11.8850          74.36          83.63           8.59
      4943        11.8870          85.71          83.80           9.16
      4944        11.8890          85.12          83.99           9.15
      4945        11.8910          82.96          84.21           9.09
      4946        11.8930          98.30          84.46           9.92
      4947        11.8950          99.02          84.76           9.95
      4948        11.8970          94.38          85.10           9.73
      4949        11.8990          90.61          85.51           9.46
      4950        11.9010          95.18          85.99           9.70
      4951        11.9030          90.76          86.58           9.52
      4952        11.9050          88.32          87.30           9.42
      4953        11.9070          82.99          88.19           9.07
      4954        11.9090         103.22          89.31          10.19
      4955        11.9110          82.36          90.75           9.01
      4956        11.9130          86.41          92.65           9.26
      4957        11.9150          79.41          95.21           8.90
      4958        11.9170         100.22          98.78           9.93
      4959        11.9190          99.12         103.95           9.87
      4960        11.9210         108.14         111.85          10.36
      4961        11.9230         106.77         125.01          10.17
      4962        11.9250         130.57         150.92          11.35
      4963        11.9270         161.04         210.38          12.54
      4964        11.9290         229.45         339.40          14.76
      4965        11.9310         389.25         534.34          19.14
      4966        11.9330         619.30         580.24          24.54
      4967        11.9350         697.16         395.77          26.53
      4968        11.9370         425.27         240.78          20.81
      4969        11.9390         234.66         164.07          15.42
      4970        11.9410         156.21         130.99          12.52
      4971        11.9430         123.39         115.13          11.04
      4972        11.9450         110.67         106.01          10.51
      4973        11.9470         101.77         100.17          10.07
      4974        11.9490         111.05          96.19          10.55
      4975        11.9510         111.42          93.37          10.56
      4976        11.9530          84.55          91.30           9.11
      4977        11.9550         106.36          89.74          10.33
      4978        11.9570          98.87          88.53           9.93
      4979        11.9590          82.08          87.58           9.00
      4980        11.9610          78.87          86.82           8.87
      4981        11.9630          80.55          86.20           8.95
      4982        11.9650         105.25          85.69          10.35
      4983        11.9670          97.89          85.26           9.84
      4984        11.9690          91.95          84.90           9.52
      4985        11.9710          92.07          84.60           9.53
      4986        11.9730          78.00          84.34           8.75
      4987        11.9750          93.71          84.11           9.77
      4988        11.9770          82.14          83.92           9.00
      4989        11.9790          96.09          83.74           9.76
      4990        11.9810          82.48          83.59           9.00
      4991        11.9830          80.00          83.46           8.88
      4992        11.9850          97.89          83.34           9.91
      4993        11.9870          78.47          83.24           8.76
      4994        11.9890          88.08          83.14           9.27
      4995        11.9910          85.69          83.06           9.21
      4996        11.9930          87.85          82.98           9.30
      4997        11.9950          86.24          82.91           9.25
      4998        11.9970          74.73          82.85           8.60
      4999        11.9990          85.39          82.79           9.20
      5000        12.0010          75.08          82.74           7.93
      5001        12.0030          87.90          82.69           8.54
      5002        12.0050          78.84          82.64           8.07
      5003        12.0070          69.20          82.60           7.55
      5004        12.0090          79.74          82.56           8.11
      5005        12.0110          76.15          82.53           7.96
      5006        12.0130          78.81          82.50           8.11
      5007        12.0150          81.57          82.47           8.26
      5008        12.0170          80.16          82.44           8.17
      5009        12.0190          83.11          82.41           8.33
      5010        12.0210          73.28          82.39           7.81
      5011        12.0230          86.68          82.37           8.49
      5012        12.0250          80.35          82.35           8.20
      5013        12.0270          91.20          82.33           8.75
      5014        12.0290          86.38          82.31           8.49
      5015        12.0310          78.77          82.29           8.08
      5016        12.0330          75.69          82.28           7.95
      5017        12.0350          80.90          82.26           8.25
      5018        12.0370          81.41          82.25           8.25
      5019        12.0390          73.86          82.23           7.84
      5020        12.0410          80.55          82.22           8.17
      5021        12.0430          91.79          82.21           8.75
      5022        12.0450          84.56          82.20           8.38
      5023        12.0470          77.81          82.19           8.08
      5024        12.0490          83.12          82.18           8.33
      5025        12.0510          92.33          82.17           8.84
      5026        12.0530          81.51          82.16           8.26
      5027        12.0550          77.24          82.15           8.01
      5028        12.0570          71.88          82.14           7.75
      5029        12.0590          68.12          82.13           7.53
      5030        12.0610          67.78          82.12           7.53
      5031        12.0630          85.97          82.12           8.45
      5032        12.0650          84.57          81.87           8.37
      5033        12.0670          80.79          81.87           8.25
      5034        12.0690          76.36          81.87           8.00
      5035        12.0710          76.57          81.87           8.02
      5036        12.0730          76.81          81.87           8.02
      5037        12.0750          87.11          81.87           8.51
      5038        12.0770          66.72          81.87           7.45
      5039        12.0790          81.98          81.87           8.28
      5040        12.0810          81.31          81.87           8.21
      5041        12.0830          72.51          81.87           7.78
      5042        12.0850          73.90          81.87           7.86
      5043        12.0870          73.87          81.87           7.87
      5044        12.0890          75.43          81.87           7.95
      5045        12.0910          83.12          81.87           8.32
      5046        12.0930          83.32          81.87           8.34
      5047        12.0950          83.67          81.87           8.38
      5048        12.0970          84.27          81.87           8.38
      5049        12.0990          78.82          81.87           8.10
      5050        12.1010          77.62          81.87           8.04
      5051        12.1030          82.71          81.87           8.32
      5052        12.1050         102.45          81.87           9.23
      5053        12.1070          83.37          81.87           8.35
      5054        12.1090          83.29          81.87           8.37
      5055        12.1110          87.61          81.87           8.57
      5056        12.1130          83.76          81.87           8.37
      5057        12.1150          81.51          81.87           8.26
      5058        12.1170          78.58          81.87           8.09
      5059        12.1190          86.23          81.87           8.45
      5060        12.1210          75.94          81.87           7.95
      5061        12.1230          86.56          81.87           8.50
      5062        12.1250          84.46          81.87           8.38
      5063        12.1270          77.40          81.87           8.01
      5064        12.1290          82.02          81.87           8.28
      5065        12.1310          92.72          81.87           8.82
      5066        12.1330          85.30          81.87           8.43
      5067        12.1350          90.64          81.87           8.65
      5068        12.1370          96.16          81.87           8.93
      5069        12.1390          89.41          81.87           8.64
      5070        12.1410          78.13          81.87           8.08
      5071        12.1430          85.33          81.87           8.43
      5072        12.1450          83.22          81.87           8.30
      5073        12.1470          78.06          81.87           8.04
      5074        12.1490          83.36          81.87           8.34
      5075        12.1510          95.10          81.87           8.91
      5076        12.1530          77.73          81.87           8.08
      5077        12.1550          75.91          81.87           7.97
      5078        12.1570          86.59          81.87           8.50
      5079        12.1590          90.10          81.87           8.68
      5080        12.1610          72.60          81.86           7.80
      5081        12.1630          79.64          81.86           8.15
      5082        12.1650          84.00          81.86           8.39
      5083        12.1670          84.37          81.86           8.39
      5084        12.1690          84.83          81.86           8.42
      5085        12.1710          85.90          81.86           8.47
      5086        12.1730          81.76          81.86           8.27
      5087        12.1750          91.89          81.86           8.78
      5088        12.1770          78.13          81.86           8.10
      5089        12.1790          82.04          81.86           8.26
      5090        12.1810          76.42          81.86           7.98
      5091        12.1830          87.16          81.86           8.51
      5092        12.1850          88.13          81.86           8.62
      5093        12.1870          79.25          81.86           8.16
      5094        12.1890          78.54          81.86           8.11
      5095        12.1910          96.70          81.85           8.98
      5096        12.1930          86.32          81.85           8.51
      5097        12.1950          82.79          81.85           8.32
      5098        12.1970          81.51          81.85           8.26
      5099        12.1990          70.66          81.85           7.71
      5100        12.2010          77.83          81.85           8.07
      5101        12.2030          80.34          81.85           8.21
      5102        12.2050          75.36          81.85           7.95
      5103        12.2070          75.53          81.85           7.95
      5104        12.2090          74.23          81.85           7.89
      5105        12.2110          80.28          81.84           8.18
      5106        12.2130          75.29          81.84           7.95
      5107        12.2150          80.64          81.84           8.21
      5108        12.2170          80.36          81.84           8.15
      5109        12.2190          71.57          81.84           7.73
      5110        12.2210          72.01          81.84           7.73
      5111        12.2230          79.28          81.84           8.14
      5112        12.2250          79.86          81.84           8.17
      5113        12.2270          76.05          81.84           8.00
      5114        12.2290          72.55          81.83           7.79
      5115        12.2310          69.01          81.83           7.59
      5116        12.2330          83.37          81.83           8.33
      5117        12.2350          73.48          81.83           7.84
      5118        12.2370          70.45          81.83           7.68
      5119        12.2390          85.61          81.83           8.45
      5120        12.2410          86.99          81.83           8.52
      5121        12.2430          80.18          81.83           8.19
      5122        12.2450          78.95          81.82           8.13
      5123        12.2470          86.33          81.82           8.47
      5124        12.2490          75.31          81.82           7.93
      5125        12.2510          77.24          81.82           8.04
      5126        12.2530          97.57          81.82           8.99
      5127        12.2550          86.59          81.82           8.55
      5128        12.2570          86.99          81.82           8.49
      5129        12.2590          62.72          81.81           7.22
      5130        12.2610          75.92          81.81           7.96
      5131        12.2630          77.89          81.81           8.07
      5132        12.2650          72.54          81.81           7.76
      5133        12.2670          67.19          81.81           7.47
      5134        12.2690          81.36          81.81           8.22
      5135        12.2710          83.60          81.81           8.37
      5136        12.2730          78.17          81.80           8.07
      5137        12.2750          75.72          81.80           7.95
      5138        12.2770          71.75          81.80           7.76
      5139        12.2790          72.19          81.80           7.77
      5140        12.2810          89.31          81.80           8.62
      5141        12.2830          79.41          81.80           8.14
      5142        12.2850          77.50          81.79           8.07
      5143        12.2870          83.87          81.79           8.37
      5144        12.2890          86.16          81.79           8.46
      5145        12.2910          81.58          81.79           8.23
      5146        12.2930          85.82          81.79           8.47
      5147        12.2950          77.61          81.79           8.04
      5148        12.2970          79.57          81.78           8.18
      5149        12.2990          80.06          81.78           8.22
      5150        12.3010          76.10          81.78           7.98
      5151        12.3030          80.76          81.78           8.21
      5152        12.3050          80.18          81.78           8.19
      5153        12.3070          88.28          81.77           8.60
      5154        12.3090          79.14          81.77           8.14
      5155        12.3110          75.90          81.77           7.94
      5156        12.3130          88.71          81.77           8.60
      5157        12.3150          80.77          81.77           8.25
      5158        12.3170          77.92          81.76           8.10
      5159        12.3190          75.60          81.76           7.98
      5160        12.3210          82.65          81.76           8.33
      5161        12.3230          79.69          81.76           8.19
      5162        12.3250          87.79          81.76           8.57
      5163        12.3270          74.24          81.75           7.88
      5164        12.3290          79.71          81.75           8.14
      5165        12.3310          92.03          81.75           8.77
      5166        12.3330          78.15          81.75           8.10
      5167        12.3350          77.75          81.75           8.06
      5168        12.3370          72.85          81.74           7.80
      5169        12.3390          82.16          81.74           8.24
      5170        12.3410          79.44          81.74           8.07
      5171        12.3430          67.75          81.74           7.55
      5172        12.3450          71.66          81.73           7.74
      5173        12.3470          79.09          81.73           8.09
      5174        12.3490          77.67          81.73           8.09
      5175        12.3510          79.94          81.73           8.16
      5176        12.3530          70.25          81.72           7.65
      5177        12.3550          81.41          81.72           8.22
      5178        12.3570          79.69          81.72           8.15
      5179        12.3590          87.57          81.72           8.57
      5180        12.3610          80.39          81.71           8.21
      5181        12.3630          73.22          81.71           7.81
      5182        12.3650          74.66          81.71           7.89
      5183        12.3670          83.06          81.71           8.33
      5184        12.3690          79.38          81.71           8.16
      5185        12.3710          78.74          81.70           8.09
      5186        12.3730          73.62          81.70           7.86
      5187        12.3750          82.37          81.70           8.30
      5188        12.3770          76.85          81.70           8.02
      5189        12.3790          75.67          81.70           8.01
      5190        12.3810          86.53          81.69           8.55
      5191        12.3830          91.03          81.69           8.75
      5192        12.3850          83.41          81.69           8.30
      5193        12.3870          64.10          81.69           7.28
      5194        12.3890          84.09          81.68           8.37
      5195        12.3910          80.62          81.68           8.25
      5196        12.3930          82.04          81.68           8.30
      5197        12.3950          77.86          81.68           8.08
      5198        12.3970          78.70          81.67           8.11
      5199        12.3990          72.30          81.67           7.78
      5200        12.4010          74.75          81.67           7.88
      5201        12.4030          86.40          81.67           8.48
      5202        12.4050          76.15          81.66           8.01
      5203        12.4070          72.98          81.66           7.83
      5204        12.4090          76.08          81.66           7.98
      5205        12.4110          65.23          81.66           7.39
      5206        12.4130          80.47          81.65           8.16
      5207        12.4150          82.11          81.65           8.23
      5208        12.4170          83.87          81.65           8.35
      5209        12.4190          87.01          81.65           8.53
      5210        12.4210          87.82          81.64           8.54
      5211        12.4230          82.88          81.64           8.29
      5212        12.4250          78.83          81.64           8.08
      5213        12.4270          79.80          81.64           8.14
      5214        12.4290          77.13          81.63           8.00
      5215        12.4310          76.44          81.63           7.98
      5216        12.4330          84.61          81.63           8.37
      5217        12.4350          86.58          81.62           8.46
      5218        12.4370          85.19          81.62           8.40
      5219        12.4390          69.16          81.62           7.56
      5220        12.4410          81.37          81.62           8.24
      5221        12.4430          78.39          81.62           8.09
      5222        12.4450          89.22          81.61           8.60
      5223        12.4470          86.58          81.61           8.46
      5224        12.4490          88.96          81.61           8.62
      5225        12.4510          65.85          81.61           7.42
      5226        12.4530          69.99          81.60           7.62
      5227        12.4550          81.39          81.60           8.20
      5228        12.4570          74.02          81.60           7.86
      5229        12.4590          75.48          81.60           7.92
      5230        12.4610          86.05          81.60           8.46
      5231        12.4630          83.30          81.60           8.34
      5232        12.4650          90.74          81.59           8.68
      5233        12.4670          75.58          81.59           7.94
      5234        12.4690          72.84          81.59           7.78
      5235        12.4710          77.29          81.59           8.03
      5236        12.4730          80.08          81.59           8.20
      5237        12.4750          89.86          81.59           8.68
      5238        12.4770          92.37          81.60           8.75
      5239        12.4790          82.89          81.60           8.30
      5240        12.4810          89.10          81.60           8.60
      5241        12.4830          76.20          81.61           7.96
      5242        12.4850          74.74          81.61           7.90
      5243        12.4870          72.01          81.62           7.78
      5244        12.4890          72.99          81.63           7.84
      5245        12.4910          67.10          81.64           7.51
      5246        12.4930          73.83          81.66           7.87
      5247        12.4950          77.31          81.69           8.04
      5248        12.4970          83.65          81.72           8.35
      5249        12.4990          89.35          81.76           8.62
      5250        12.5010          75.76          81.83           7.96
      5251        12.5030          90.48          81.92           8.66
      5252        12.5050          89.28          82.05           8.62
      5253        12.5070          72.44          82.28           7.77
      5254        12.5090          82.19          82.72           8.28
      5255        12.5110          85.88          83.70           8.45
      5256        12.5130          85.51          85.80           8.41
      5257        12.5150         101.52          89.19           9.20
      5258        12.5170          89.33          91.40           8.62
      5259        12.5190          80.01          89.04           8.17
      5260        12.5210          86.92          85.67           8.54
      5261        12.5230          89.46          83.62           8.64
      5262        12.5250          88.14          82.67           8.57
      5263        12.5270          71.93          82.23           7.76
      5264        12.5290          78.19          82.00           8.11
      5265        12.5310          88.35          81.86           8.59
      5266        12.5330          89.68          81.76           8.67
      5267        12.5350          86.25          81.69           8.47
      5268        12.5370          73.49          81.64           7.81
      5269        12.5390          73.46          81.60           7.82
      5270        12.5410          77.40          81.57           8.02
      5271        12.5430          85.83          81.54           8.46
      5272        12.5450          82.80          81.52           8.29
      5273        12.5470          73.74          81.50           7.81
      5274        12.5490          73.08          81.49           7.83
      5275        12.5510          71.74          81.47           7.71
      5276        12.5530          89.55          81.46           8.64
      5277        12.5550          73.37          81.45           7.81
      5278        12.5570          70.30          81.44           7.65
      5279        12.5590          75.53          81.43           7.92
      5280        12.5610          87.02          81.42           8.48
      5281        12.5630          91.08          81.41           8.68
      5282        12.5650          75.81          81.41           7.94
      5283        12.5670          78.45          81.40           8.06
      5284        12.5690          77.70          81.39           8.04
      5285        12.5710          89.50          81.38           8.65
      5286        12.5730          80.69          81.38           8.23
      5287        12.5750          72.52          81.37           7.78
      5288        12.5770          68.06          81.37           7.55
      5289        12.5790          73.12          81.36           7.80
      5290        12.5810          74.31          81.35           7.87
      5291        12.5830          85.75          81.35           8.50
      5292        12.5850          81.85          81.34           8.29
      5293        12.5870          82.76          81.34           8.32
      5294        12.5890          78.63          81.33           8.11
      5295        12.5910          72.44          81.33           7.77
      5296        12.5930          75.52          81.32           7.91
      5297        12.5950          91.57          81.32           8.76
      5298        12.5970          89.12          81.31           8.62
      5299        12.5990          86.26          81.30           8.46
      5300        12.6010          70.98          81.30           7.68
      5301        12.6030          73.89          81.29           7.82
      5302        12.6050          86.44          81.29           8.46
      5303        12.6070          80.12          81.28           8.12
      5304        12.6090          73.06          81.28           7.75
      5305        12.6110          74.20          81.27           7.88
      5306        12.6130          81.47          81.27           8.26
      5307        12.6150          73.06          81.26           7.83
      5308        12.6170          84.27          81.26           8.38
      5309        12.6190          83.93          81.25           8.35
      5310        12.6210          84.18          81.25           8.35
      5311        12.6230          72.72          81.24           7.75
      5312        12.6250          71.27          81.24           7.71
      5313        12.6270          93.07          81.23           8.78
      5314        12.6290          92.06          81.23           8.78
      5315        12.6310          83.53          81.22           8.35
      5316        12.6330          78.01          81.22           8.06
      5317        12.6350          82.80          81.21           8.28
      5318        12.6370          99.91          81.21           9.13
      5319        12.6390          84.88          81.20           8.40
      5320        12.6410          80.61          81.20           8.16
      5321        12.6430          88.83          81.19           8.63
      5322        12.6450          81.67          81.19           8.26
      5323        12.6470          82.36          81.18           8.25
      5324        12.6490          79.19          81.17           8.13
      5325        12.6510          67.14          81.17           7.50
      5326        12.6530          75.59          81.16           7.95
      5327        12.6550          73.62          81.16           7.84
      5328        12.6570          89.81          81.15           8.64
      5329        12.6590          68.83          81.14           7.59
      5330        12.6610          66.35          81.14           7.43
      5331        12.6630          79.36          81.13           8.16
      5332        12.6650          84.23          81.13           8.40
      5333        12.6670          95.77          81.12           8.94
      5334        12.6690          80.00          81.12           8.15
      5335        12.6710          81.78          81.11           8.22
      5336        12.6730          68.44          81.11           7.55
      5337        12.6750          75.98          81.10           7.92
      5338        12.6770          84.18          81.10           8.37
      5339        12.6790          85.73          81.09           8.45
      5340        12.6810          77.35          81.09           8.01
      5341        12.6830          86.03          81.08           8.43
      5342        12.6850          91.51          81.07           8.73
      5343        12.6870          82.24          81.07           8.26
      5344        12.6890          73.79          81.06           7.85
      5345        12.6910          81.61          81.06           8.25
      5346        12.6930          84.81          81.05           8.40
      5347        12.6950          79.08          81.05           8.09
      5348        12.6970          80.06          81.04           8.12
      5349        12.6990          78.17          81.04           8.11
      5350        12.7010          76.03          81.03           7.99
      5351        12.7030          71.63          81.03           7.74
      5352        12.7050          76.07          81.02           7.97
      5353        12.7070          80.78          81.01           8.22
      5354        12.7090          91.92          81.01           8.73
      5355        12.7110          94.47          81.00           8.90
      5356        12.7130          83.14          81.00           8.32
      5357        12.7150          76.26          80.99           7.97
      5358        12.7170          85.19          80.99           8.43
      5359        12.7190          91.36          80.98           8.72
      5360        12.7210          76.92          80.97           8.01
      5361        12.7230          79.62          80.97           8.15
      5362        12.7250          85.14          80.96           8.43
      5363        12.7270          90.42          80.96           8.70
      5364        12.7290          87.47          80.95           8.55
      5365        12.7310          83.84          80.95           8.36
      5366        12.7330          70.83          80.94           7.70
      5367        12.7350          78.99          80.93           8.13
      5368        12.7370          81.31          80.93           8.25
      5369        12.7390          80.84          80.92           8.20
      5370        12.7410          65.68          80.92           7.41
      5371        12.7430          71.62          80.91           7.72
      5372        12.7450          67.68          80.91           7.49
      5373        12.7470          68.28          80.90           7.54
      5374        12.7490          82.95          80.89           8.29
      5375        12.7510          77.33          80.89           8.01
      5376        12.7530          67.14          80.88           7.46
      5377        12.7550          67.08          80.88           7.45
      5378        12.7570          74.85          80.87           7.92
      5379        12.7590          79.81          80.86           8.16
      5380        12.7610          83.80          80.86           8.32
      5381        12.7630          71.12          80.85           7.75
      5382        12.7650          81.37          80.85           8.27
      5383        12.7670          82.56          80.84           8.30
      5384        12.7690          79.31          80.83           8.11
      5385        12.7710          66.58          80.83           7.45
      5386        12.7730          71.67          80.82           7.73
      5387        12.7750          77.11          80.81           7.99
      5388        12.7770          79.71          80.81           8.07
      5389        12.7790          76.18          80.80           7.96
      5390        12.7810          95.06          80.80           8.88
      5391        12.7830          81.91          80.79           8.22
      5392        12.7850          78.54          80.78           8.13
      5393        12.7870          95.69          80.78           8.95
      5394        12.7890          84.43          80.77           8.38
      5395        12.7910          75.36          80.76           7.92
      5396        12.7930          91.87          80.76           8.74
      5397        12.7950          84.85          80.75           8.44
      5398        12.7970          83.19          80.75           8.33
      5399        12.7990          73.42          80.74           7.81
      5400        12.8010          79.44          80.73           8.10
      5401        12.8030          72.32          80.73           7.78
      5402        12.8050          74.04          80.72           7.84
      5403        12.8070          87.53          80.71           8.52
      5404        12.8090          79.23          80.71           8.11
      5405        12.8110          81.83          80.70           8.22
      5406        12.8130          70.92          80.70           7.66
      5407        12.8150          80.73          80.69           8.14
      5408        12.8170          65.53          80.68           7.40
      5409        12.8190          73.84          80.68           7.82
      5410        12.8210          71.93          80.67           7.73
      5411        12.8230          74.07          80.66           7.87
      5412        12.8250          71.06          80.66           7.72
      5413        12.8270          80.78          80.65           8.19
      5414        12.8290          80.21          80.64           8.20
      5415        12.8310          82.92          80.64           8.32
      5416        12.8330          73.55          80.63           7.83
      5417        12.8350          68.19          80.62           7.52
      5418        12.8370          84.06          80.62           8.34
      5419        12.8390          86.81          80.61           8.50
      5420        12.8410          84.78          80.60           8.40
      5421        12.8430          73.23          80.60           7.80
      5422        12.8450          85.00          80.59           8.40
      5423        12.8470          83.56          80.58           8.32
      5424        12.8490          86.13          80.58           8.44
      5425        12.8510          71.12          80.57           7.70
      5426        12.8530          65.58          80.56           7.38
      5427        12.8550          85.47          80.56           8.44
      5428        12.8570          86.86          80.55           8.51
      5429        12.8590          83.59          80.54           8.35
      5430        12.8610          74.41          80.54           7.88
      5431        12.8630          82.78          80.53           8.30
      5432        12.8650          81.58          80.52           8.23
      5433        12.8670          82.85          80.52           8.32
      5434        12.8690          84.43          80.51           8.37
      5435        12.8710          84.22          80.50           8.35
      5436        12.8730          89.13          80.50           8.57
      5437        12.8750          74.04          80.49           7.81
      5438        12.8770          87.77          80.48           8.56
      5439        12.8790          75.71          80.47           7.93
      5440        12.8810          67.52          80.47           7.49
      5441        12.8830          70.39          80.46           7.69
      5442        12.8850          80.19          80.45           8.19
      5443        12.8870          77.29          80.45           8.03
      5444        12.8890          75.80          80.44           7.94
      5445        12.8910          80.48          80.43           8.16
      5446        12.8930          80.83          80.43           8.15
      5447        12.8950          73.14          80.42           7.83
      5448        12.8970          76.44          80.41           7.98
      5449        12.8990          82.36          80.41           8.25
      5450        12.9010          76.15          80.40           7.90
      5451        12.9030          83.87          80.39           8.33
      5452        12.9050          70.17          80.38           7.64
      5453        12.9070          70.98          80.38           7.68
      5454        12.9090          84.54          80.37           8.35
      5455        12.9110          69.29          80.36           7.57
      5456        12.9130          84.72          80.36           8.40
      5457        12.9150          96.53          80.35           8.96
      5458        12.9170          84.92          80.34           8.41
      5459        12.9190          80.00          80.33           8.18
      5460        12.9210          85.33          80.33           8.42
      5461        12.9230          86.67          80.32           8.49
      5462        12.9250          77.95          80.31           8.03
      5463        12.9270          77.18          80.63           8.00
      5464        12.9290          84.01          80.64           8.38
      5465        12.9310          74.38          80.64           7.88
      5466        12.9330          78.05          80.64           8.04
      5467        12.9350          74.95          80.64           7.86
      5468        12.9370          78.83          80.65           8.06
      5469        12.9390          69.86          80.65           7.59
      5470        12.9410          79.14          80.66           8.08
      5471        12.9430          81.85          80.66           8.24
      5472        12.9450          69.19          80.67           7.58
      5473        12.9470          79.45          80.67           8.11
      5474        12.9490          81.94          80.68           8.27
      5475        12.9510          85.47          80.69           8.45
      5476        12.9530          85.80          80.69           8.45
      5477        12.9550          83.45          80.70           8.37
      5478        12.9570          80.61          80.71           8.20
      5479        12.9590          73.65          80.72           7.82
      5480        12.9610          75.21          80.73           7.88
      5481        12.9630          83.28          80.75           8.34
      5482        12.9650          77.82          80.76           8.06
      5483        12.9670          77.91          80.77           8.05
      5484        12.9690          83.81          80.79           8.33
      5485        12.9710          75.23          80.81           7.94
      5486        12.9730          77.05          80.83           8.02
      5487        12.9750          69.03          80.85           7.57
      5488        12.9770          84.38          80.87           8.37
      5489        12.9790          96.54          80.89           8.93
      5490        12.9810          77.42          80.92           8.04
      5491        12.9830          79.28          80.94           8.13
      5492        12.9850          82.84          80.97           8.30
      5493        12.9870          84.09          81.01           8.36
      5494        12.9890          81.65          81.04           8.24
      5495        12.9910          80.74          81.08           8.23
      5496        12.9930          97.00          81.12           8.96
      5497        12.9950          83.64          81.17           8.33
      5498        12.9970          97.69          81.22           8.98
      5499        12.9990          77.92          81.27           8.02
      5500        13.0010          68.49          81.33           7.52
      5501        13.0030          79.23          81.39           8.11
      5502        13.0050          76.75          81.46           8.00
      5503        13.0070          69.44          81.54           7.63
      5504        13.0090          65.14          81.63           7.36
      5505        13.0110          87.41          81.72           8.52
      5506        13.0130          85.71          81.82           8.46
      5507        13.0150          89.83          81.94           8.61
      5508        13.0170          78.22          82.07           8.02
      5509        13.0190          72.35          82.21           7.76
      5510        13.0210          72.52          82.37           7.74
      5511        13.0230          81.20          82.54           8.18
      5512        13.0250          84.51          82.74           8.41
      5513        13.0270          69.67          82.97           7.61
      5514        13.0290          70.86          83.22           7.64
      5515        13.0310          89.87          83.51           8.65
      5516        13.0330          74.38          83.85           7.86
      5517        13.0350          80.43          84.23           8.19
      5518        13.0370          85.05          84.67           8.44
      5519        13.0390          90.03          85.19           8.66
      5520        13.0410          81.18          85.80           8.21
      5521        13.0430          88.59          86.53           8.58
      5522        13.0450         107.49          87.40           9.46
      5523        13.0470         102.48          88.45           9.22
      5524        13.0490          89.13          89.75           8.63
      5525        13.0510          88.92          91.36           8.57
      5526        13.0530          84.90          93.40           8.37
      5527        13.0550          89.90          96.03           8.68
      5528        13.0570          89.27          99.49           8.60
      5529        13.0590          91.44         104.19           8.68
      5530        13.0610         103.85         110.76           9.27
      5531        13.0630         114.67         120.35           9.71
      5532        13.0650         141.27         135.49          10.79
      5533        13.0670         146.16         163.06          10.95
      5534        13.0690         187.84         221.58          12.34
      5535        13.0710         298.05         346.30          15.47
      5536        13.0730         471.33         565.70          19.36
      5537        13.0750         673.04         804.62          23.23
      5538        13.0770         642.65         786.11          22.74
      5539        13.0790         643.65         538.61          23.33
      5540        13.0810         617.74         328.76          22.79
      5541        13.0830         320.36         212.96          16.35
      5542        13.0850         192.51         159.08          12.70
      5543        13.0870         149.07         133.39          11.16
      5544        13.0890         140.87         119.04          10.79
      5545        13.0910         108.32         109.82           9.45
      5546        13.0930         103.70         103.48           9.22
      5547        13.0950         105.71          98.93           9.35
      5548        13.0970          98.12          95.55           9.04
      5549        13.0990          89.19          92.97           8.62
      5550        13.1010          84.19          90.97           8.40
      5551        13.1030          93.96          89.38           8.83
      5552        13.1050          89.63          88.10           8.61
      5553        13.1070          97.23          87.05           8.93
      5554        13.1090          86.30          86.18           8.50
      5555        13.1110          92.17          85.46           8.77
      5556        13.1130          87.42          84.84           8.54
      5557        13.1150          86.42          84.31           8.48
      5558        13.1170          77.93          83.86           8.04
      5559        13.1190          86.83          83.46           8.46
      5560        13.1210          89.25          83.12           8.58
      5561        13.1230          94.07          82.82           8.82
      5562        13.1250          79.89          82.55           8.12
      5563        13.1270          76.72          82.31           7.98
      5564        13.1290          90.05          82.10           8.62
      5565        13.1310          83.78          81.91           8.34
      5566        13.1330          77.70          81.74           8.05
      5567        13.1350          76.89          81.58           8.00
      5568        13.1370          84.85          81.44           8.37
      5569        13.1390          90.41          81.31           8.65
      5570        13.1410          88.75          81.19           8.57
      5571        13.1430          85.02          81.08           8.38
      5572        13.1450          74.05          80.98           7.85
      5573        13.1470          78.67          80.89           8.06
      5574        13.1490          67.89          80.80           7.51
      5575        13.1510          82.61          80.72           8.30
      5576        13.1530          75.56          80.65           7.92
      5577        13.1550          73.60          80.58           7.83
      5578        13.1570          76.91          80.52           7.95
      5579        13.1590          95.08          80.46           8.84
      5580        13.1610          91.25          80.40           8.67
      5581        13.1630          90.13          80.34           8.69
      5582        13.1650          82.58          80.29           8.29
      5583        13.1670          73.68          80.25           7.84
      5584        13.1690          96.79          80.20           8.98
      5585        13.1710          91.67          80.16           8.76
      5586        13.1730          87.65          80.11           8.56
      5587        13.1750          91.39          80.08           8.72
      5588        13.1770          79.48          80.04           8.13
      5589        13.1790          81.83          80.00           8.24
      5590        13.1810          93.27          79.97           8.83
      5591        13.1830          93.98          79.94           8.82
      5592        13.1850          78.07          79.90           8.06
      5593        13.1870          83.76          79.87           8.34
      5594        13.1890          81.44          79.85           8.21
      5595        13.1910          78.76          79.82           8.04
      5596        13.1930          84.65          79.79           8.40
      5597        13.1950          86.64          79.76           8.48
      5598        13.1970          92.74          79.74           8.79
      5599        13.1990          90.66          79.71           8.69
      5600        13.2010          98.08          79.69           8.98
      5601        13.2030          79.66          79.67           8.11
      5602        13.2050          93.62          79.65           8.85
      5603        13.2070          89.60          79.62           8.63
      5604        13.2090          87.90          79.60           8.59
      5605        13.2110          86.07          79.58           8.46
      5606        13.2130          86.43          79.56           8.46
      5607        13.2150          83.03          79.54           8.28
      5608        13.2170          73.42          79.52           7.78
      5609        13.2190          81.87          79.51           8.23
      5610        13.2210          83.13          79.49           8.33
      5611        13.2230          81.75          79.47           8.24
      5612        13.2250          89.51          79.45           8.59
      5613        13.2270          84.09          79.12           8.37
      5614        13.2290          81.23          79.11           8.23
      5615        13.2310          76.07          79.10           7.97
      5616        13.2330          74.47          79.09           7.87
      5617        13.2350          67.12          79.08           7.47
      5618        13.2370          74.08          79.07           7.82
      5619        13.2390          86.00          79.06           8.45
      5620        13.2410          77.86          79.06           8.07
      5621        13.2430          72.49          79.05           7.77
      5622        13.2450          81.72          79.04           8.25
      5623        13.2470          77.77          79.03           8.05
      5624        13.2490          81.77          79.02           8.27
      5625        13.2510          89.78          79.01           8.65
      5626        13.2530          82.50          79.01           8.30
      5627        13.2550          77.83          79.00           8.04
      5628        13.2570          69.61          78.99           7.61
      5629        13.2590          78.60          78.98           8.11
      5630        13.2610          80.37          78.97           8.20
      5631        13.2630          80.98          78.96           8.19
      5632        13.2650          75.56          78.95           7.92
      5633        13.2670          81.16          78.95           8.17
      5634        13.2690          67.86          78.94           7.51
      5635        13.2710          70.24          78.93           7.63
      5636        13.2730          81.86          78.92           8.28
      5637        13.2750          88.02          78.91           8.54
      5638        13.2770          78.45          78.90           8.07
      5639        13.2790          91.64          78.90           8.71
      5640        13.2810          77.46          78.89           8.07
      5641        13.2830          77.72          78.88           8.06
      5642        13.2850          84.87          78.87           8.40
      5643        13.2870          87.06          78.86           8.51
      5644        13.2890          77.36          78.85           8.02
      5645        13.2910          76.06          78.84           7.91
      5646        13.2930          85.38          78.84           8.42
      5647        13.2950          91.24          78.83           8.69
      5648        13.2970          78.66          78.82           8.08
      5649        13.2990          79.94          78.81           8.16
      5650        13.3010          79.94          78.80           8.14
      5651        13.3030          70.65          78.79           7.65
      5652        13.3050          77.54          78.78           8.01
      5653        13.3070          83.87          78.78           8.35
      5654        13.3090          79.11          78.77           8.10
      5655        13.3110          87.60          78.76           8.50
      5656        13.3130          85.21          78.75           8.41
      5657        13.3150          78.89          78.74           8.09
      5658        13.3170          77.50          78.73           8.01
      5659        13.3190          84.57          78.72           8.37
      5660        13.3210          82.81          78.72           8.26
      5661        13.3230          81.27          78.71           8.20
      5662        13.3250          69.65          78.70           7.63
      5663        13.3270          71.69          78.69           7.70
      5664        13.3290          84.76          78.68           8.35
      5665        13.3310          76.95          78.67           7.99
      5666        13.3330          79.92          78.67           8.13
      5667        13.3350          75.56          78.66           7.93
      5668        13.3370          67.20          78.65           7.47
      5669        13.3390          67.80          78.64           7.50
      5670        13.3410          74.31          78.63           7.87
      5671        13.3430          75.36          78.62           7.92
      5672        13.3450          77.19          78.61           7.97
      5673        13.3470          84.46          78.61           8.42
      5674        13.3490          87.13          78.60           8.49
      5675        13.3510          72.09          78.59           7.72
      5676        13.3530          77.22          78.58           8.01
      5677        13.3550          83.42          78.57           8.29
      5678        13.3570          82.09          78.56           8.22
      5679        13.3590          86.28          78.55           8.49
      5680        13.3610          84.75          78.55           8.41
      5681        13.3630          80.61          78.54           8.19
      5682        13.3650          75.38          78.53           7.94
      5683        13.3670          85.65          78.52           8.44
      5684        13.3690          83.98          78.51           8.33
      5685        13.3710          70.55          78.50           7.62
      5686        13.3730          69.49          78.50           7.63
      5687        13.3750          72.64          78.49           7.79
      5688        13.3770          75.53          78.48           7.91
      5689        13.3790          81.11          78.47           8.20
      5690        13.3810          86.34          78.46           8.46
      5691        13.3830          89.48          78.45           8.62
      5692        13.3850          84.71          78.44           8.36
      5693        13.3870          76.19          78.44           7.91
      5694        13.3890          78.85          78.43           8.13
      5695        13.3910          90.97          78.42           8.71
      5696        13.3930          88.64          78.41           8.62
      5697        13.3950          89.55          78.40           8.65
      5698        13.3970          81.07          78.39           8.23
      5699        13.3990          69.33          78.38           7.61
      5700        13.4010          72.50          78.38           7.76
      5701        13.4030          90.67          78.37           8.66
      5702        13.4050          90.41          78.36           8.66
      5703        13.4070          93.72          78.35           8.82
      5704        13.4090          88.37          78.34           8.59
      5705        13.4110          78.69          78.33           8.11
      5706        13.4130          74.38          78.33           7.87
      5707        13.4150          84.96          78.32           8.38
      5708        13.4170          74.44          78.31           7.89
      5709        13.4190          82.23          78.30           8.28
      5710        13.4210          83.85          78.29           8.37
      5711        13.4230          95.88          78.28           8.92
      5712        13.4250          80.62          78.27           8.19
      5713        13.4270          89.12          78.27           8.60
      5714        13.4290          93.28          78.26           8.78
      5715        13.4310          79.00          78.25           8.11
      5716        13.4330          75.53          78.24           7.93
      5717        13.4350          73.61          78.23           7.81
      5718        13.4370          78.34          78.22           8.06
      5719        13.4390          88.06          78.22           8.55
      5720        13.4410          88.61          78.21           8.56
      5721        13.4430          68.29          78.20           7.55
      5722        13.4450          73.84          78.19           7.82
      5723        13.4470          80.46          78.18           8.15
      5724        13.4490          86.85          78.17           8.48
      5725        13.4510          78.36          78.17           8.06
      5726        13.4530          83.36          78.16           8.30
      5727        13.4550          87.70          78.25           8.55
      5728        13.4570          72.43          78.25           7.77
      5729        13.4590          89.70          78.24           8.62
      5730        13.4610          86.26          78.23           8.47
      5731        13.4630          90.24          78.23           8.67
      5732        13.4650          76.98          78.22           8.01
      5733        13.4670          78.16          78.22           8.03
      5734        13.4690          72.12          78.21           7.71
      5735        13.4710          96.15          78.21           8.89
      5736        13.4730          87.09          78.20           8.49
      5737        13.4750          71.38          78.20           7.72
      5738        13.4770          87.16          78.19           8.51
      5739        13.4790          69.38          78.19           7.62
      5740        13.4810          69.77          78.19           7.60
      5741        13.4830          65.42          78.18           7.34
      5742        13.4850          71.96          78.18           7.72
      5743        13.4870          82.50          78.18           8.28
      5744        13.4890          79.20          78.17           8.12
      5745        13.4910          85.35          78.17           8.38
      5746        13.4930          74.31          78.17           7.85
      5747        13.4950          80.81          78.17           8.16
      5748        13.4970          65.01          78.16           7.32
      5749        13.4990          76.92          78.16           7.96
      5750        13.5010          83.05          78.16           8.30
      5751        13.5030          81.73          78.16           8.22
      5752        13.5050          87.22          78.16           8.51
      5753        13.5070          78.86          78.16           8.07
      5754        13.5090          70.63          78.16           7.70
      5755        13.5110          75.08          78.16           7.91
      5756        13.5130          77.62          78.16           8.00
      5757        13.5150          69.72          78.17           7.56
      5758        13.5170          87.21          78.17           8.47
      5759        13.5190          69.32          78.17           7.59
      5760        13.5210          82.15          78.18           8.25
      5761        13.5230          74.17          78.18           7.82
      5762        13.5250          80.28          78.19           8.10
      5763        13.5270          79.81          78.20           8.11
      5764        13.5290          70.49          78.21           7.60
      5765        13.5310          74.43          78.22           7.88
      5766        13.5330          73.31          78.23           7.82
      5767        13.5350          79.70          78.24           8.16
      5768        13.5370          80.35          78.25           8.16
      5769        13.5390          63.52          78.27           7.27
      5770        13.5410          79.66          78.29           8.14
      5771        13.5430          75.32          78.31           7.91
      5772        13.5450          72.90          78.33           7.76
      5773        13.5470          84.85          78.36           8.38
      5774        13.5490          85.91          78.39           8.41
      5775        13.5510          90.59          78.42           8.68
      5776        13.5530          84.92          78.46           8.41
      5777        13.5550          83.51          78.50           8.34
      5778        13.5570          88.78          78.55           8.60
      5779        13.5590          74.08          78.61           7.86
      5780        13.5610          82.35          78.67           8.25
      5781        13.5630          75.84          78.74           7.89
      5782        13.5650          76.89          78.82           7.89
      5783        13.5670          78.20          78.91           8.08
      5784        13.5690          83.31          79.02           8.31
      5785        13.5710          79.79          79.14           8.15
      5786        13.5730          76.35          79.29           8.00
      5787        13.5750          74.03          79.46           7.85
      5788        13.5770          84.61          79.65           8.34
      5789        13.5790          95.13          79.89           8.85
      5790        13.5810         101.20          80.18           9.17
      5791        13.5830          97.17          80.52           9.00
      5792        13.5850          78.47          80.94           8.11
      5793        13.5870          84.27          81.47           8.38
      5794        13.5890          86.62          82.13           8.48
      5795        13.5910          85.11          82.99           8.39
      5796        13.5930          86.23          84.11           8.46
      5797        13.5950          90.68          85.62           8.69
      5798        13.5970          87.56          87.71           8.53
      5799        13.5990          92.89          90.75           8.75
      5800        13.6010          96.26          95.53           8.97
      5801        13.6030          92.42         104.21           8.76
      5802        13.6050         105.35         122.30           9.31
      5803        13.6070         123.74         159.76          10.01
      5804        13.6090         192.35         224.80          12.53
      5805        13.6110         292.23         300.97          15.39
      5806        13.6130         335.48         315.03          16.67
      5807        13.6150         277.64         247.02          15.21
      5808        13.6170         150.00         175.11          11.24
      5809        13.6190         125.44         130.30          10.22
      5810        13.6210         114.25         107.90           9.74
      5811        13.6230         103.22          97.33           9.23
      5812        13.6250          88.35          91.76           8.52
      5813        13.6270         103.53          88.33           9.31
      5814        13.6290         109.04          86.01           9.48
      5815        13.6310          74.62          84.34           7.87
      5816        13.6330          91.36          83.11           8.69
      5817        13.6350          74.75          82.17           7.87
      5818        13.6370          69.36          81.45           7.58
      5819        13.6390          87.09          80.87           8.54
      5820        13.6410          94.58          80.41           8.84
      5821        13.6430          87.82          80.03           8.49
      5822        13.6450          99.96          79.71           9.12
      5823        13.6470          97.58          79.45           9.00
      5824        13.6490          88.47          79.22           8.59
      5825        13.6510          76.86          79.03           8.01
      5826        13.6530          81.81          78.86           8.26
      5827        13.6550          87.31          78.72           8.51
      5828        13.6570          84.47          78.59           8.37
      5829        13.6590          85.13          78.48           8.42
      5830        13.6610          80.61          78.38           8.18
      5831        13.6630          62.40          78.29           7.19
      5832        13.6650          90.30          78.21           8.64
      5833        13.6670          91.12          78.14           8.71
      5834        13.6690          84.20          78.08           8.36
      5835        13.6710          82.44          78.02           8.27
      5836        13.6730          79.89          77.96           8.14
      5837        13.6750          73.97          77.91           7.81
      5838        13.6770          89.76          77.87           8.60
      5839        13.6790          84.08          77.82           8.33
      5840        13.6810          77.69          77.78           8.03
      5841        13.6830          80.43          77.75           8.15
      5842        13.6850          80.49          77.71           8.21
      5843        13.6870          81.08          77.68           8.21
      5844        13.6890          79.19          77.65           8.12
      5845        13.6910          79.74          77.62           8.13
      5846        13.6930          71.74          77.59           7.69
      5847        13.6950          75.94          77.57           7.91
      5848        13.6970          72.77          77.54           7.81
      5849        13.6990          79.34          77.52           8.11
      5850        13.7010          79.93          77.50           8.12
      5851        13.7030          88.88          77.48           8.62
      5852        13.7050          89.01          77.46           8.58
      5853        13.7070          68.04          77.44           7.57
      5854        13.7090          69.83          77.42           7.68
      5855        13.7110          84.60          77.40           8.42
      5856        13.7130          95.64          77.38           8.90
      5857        13.7150          81.46          77.37           8.23
      5858        13.7170          83.89          77.35           8.34
      5859        13.7190          74.77          77.33           7.86
      5860        13.7210          66.79          77.32           7.44
      5861        13.7230          76.75          77.30           7.99
      5862        13.7250          89.54          77.29           8.63
      5863        13.7270          89.92          77.28           8.61
      5864        13.7290          78.59          77.26           8.04
      5865        13.7310          69.46          77.25           7.61
      5866        13.7330          78.17          77.24           8.07
      5867        13.7350          68.48          77.22           7.54
      5868        13.7370          76.82          77.21           7.97
      5869        13.7390          79.34          77.20           8.10
      5870        13.7410          83.33          77.19           8.27
      5871        13.7430          82.05          77.18           8.25
      5872        13.7450          78.69          77.17           8.11
      5873        13.7470          85.55          77.15           8.44
      5874        13.7490          86.88          77.14           8.48
      5875        13.7510          76.16          77.13           7.95
      5876        13.7530          74.61          77.12           7.85
      5877        13.7550          75.94          77.11           7.94
      5878        13.7570          87.01          77.10           8.46
      5879        13.7590          66.15          77.09           7.43
      5880        13.7610          70.21          77.08           7.64
      5881        13.7630          87.20          77.07           8.47
      5882        13.7650          81.05          77.06           8.19
      5883        13.7670          83.34          77.05           8.32
      5884        13.7690          90.26          77.04           8.66
      5885        13.7710          88.97          76.93           8.59
      5886        13.7730          73.70          76.93           7.81
      5887        13.7750          70.22          76.92           7.64
      5888        13.7770          72.97          76.91           7.80
      5889        13.7790          78.38          76.91           8.04
      5890        13.7810          83.68          76.90           8.33
      5891        13.7830          81.72          76.89           8.23
      5892        13.7850          75.98          76.89           7.96
      5893        13.7870          86.14          76.88           8.49
      5894        13.7890          77.99          76.87           8.09
      5895        13.7910          73.65          76.87           7.83
      5896        13.7930          91.87          76.86           8.72
      5897        13.7950          80.36          76.85           8.17
      5898        13.7970          75.21          76.85           7.92
      5899        13.7990          74.63          76.84           7.88
      5900        13.8010          87.36          76.83           8.52
      5901        13.8030          79.32          76.83           8.13
      5902        13.8050          83.96          76.82           8.35
      5903        13.8070          83.18          76.82           8.33
      5904        13.8090          80.71          76.81           8.18
      5905        13.8110          88.84          76.80           8.57
      5906        13.8130          79.93          76.80           8.13
      5907        13.8150          78.31          76.79           8.07
      5908        13.8170          73.76          76.78           7.83
      5909        13.8190          76.30          76.78           7.96
      5910        13.8210          78.52          76.77           8.08
      5911        13.8230          82.52          76.76           8.26
      5912        13.8250          84.18          76.76           8.36
      5913        13.8270          77.81          76.75           8.05
      5914        13.8290          91.09          76.75           8.70
      5915        13.8310          89.53          76.74           8.64
      5916        13.8330          77.34          76.73           8.04
      5917        13.8350          81.30          76.73           8.25
      5918        13.8370          89.95          76.72           8.64
      5919        13.8390          86.72          76.72           8.51
      5920        13.8410          97.51          76.71           8.97
      5921        13.8430          73.91          76.70           7.83
      5922        13.8450          72.40          76.70           7.74
      5923        13.8470          70.43          76.69           7.63
      5924        13.8490          74.69          76.69           7.83
      5925        13.8510          76.86          76.68           8.02
      5926        13.8530          83.95          76.67           8.37
      5927        13.8550          83.13          76.67           8.32
      5928        13.8570          74.36          76.66           7.85
      5929        13.8590          71.38          76.66           7.66
      5930        13.8610          90.47          76.65           8.62
      5931        13.8630          74.18          76.64           7.80
      5932        13.8650          83.17          76.64           8.30
      5933        13.8670          74.99          76.63           7.91
      5934        13.8690          80.49          76.63           8.18
      5935        13.8710          89.19          76.62           8.58
      5936        13.8730          77.66          76.61           8.01
      5937        13.8750          82.00          76.61           8.26
      5938        13.8770          74.82          76.60           7.90
      5939        13.8790          82.61          76.60           8.30
      5940        13.8810          91.06          76.59           8.73
      5941        13.8830          80.61          76.59           8.21
      5942        13.8850          78.52          76.58           8.07
      5943        13.8870          78.65          76.57           8.06
      5944        13.8890          79.24          76.57           8.13
      5945        13.8910          80.69          76.56           8.22
      5946        13.8930          74.75          76.56           7.89
      5947        13.8950          82.39          76.55           8.29
      5948        13.8970          81.56          76.55           8.25
      5949        13.8990          80.95          76.54           8.20
      5950        13.9010          84.78          76.54           8.41
      5951        13.9030          87.14          76.53           8.52
      5952        13.9050          80.88          76.52           8.19
      5953        13.9070          69.47          76.52           7.58
      5954        13.9090          67.63          76.51           7.49
      5955        13.9110          74.08          76.51           7.86
      5956        13.9130          78.07          76.50           8.05
      5957        13.9150          86.68          76.50           8.48
      5958        13.9170          79.91          76.49           8.15
      5959        13.9190          73.99          76.49           7.84
      5960        13.9210          89.43          76.48           8.61
      5961        13.9230          81.59          76.48           8.25
      5962        13.9250          77.36          76.47           8.02
      5963        13.9270          73.80          76.47           7.84
      5964        13.9290          74.34          76.46           7.84
      5965        13.9310          75.89          76.45           7.91
      5966        13.9330          77.98          76.45           8.06
      5967        13.9350          87.50          76.44           8.54
      5968        13.9370          93.26          76.44           8.79
      5969        13.9390          88.78          76.43           8.59
      5970        13.9410         101.17          76.43           9.19
      5971        13.9430          89.86          76.42           8.64
      5972        13.9450          77.53          76.42           8.01
      5973        13.9470          70.72          76.41           7.67
      5974        13.9490          83.03          76.41           8.32
      5975        13.9510          91.47          76.40           8.73
      5976        13.9530          90.55          76.40           8.67
      5977        13.9550          76.44          76.39           8.00
      5978        13.9570          77.15          76.39           8.00
      5979        13.9590          80.31          76.38           8.17
      5980        13.9610          68.53          76.38           7.55
      5981        13.9630          64.40          76.66           7.31
      5982        13.9650          81.56          76.66           8.23
      5983        13.9670          81.72          76.66           8.24
      5984        13.9690          76.53          76.67           7.98
      5985        13.9710          82.55          76.67           8.26
      5986        13.9730          78.35          76.67           8.08
      5987        13.9750          77.63          76.68           8.03
      5988        13.9770          67.18          76.68           7.48
      5989        13.9790          63.30          76.68           7.27
      5990        13.9810          73.30          76.69           7.80
      5991        13.9830          87.04          76.69           8.44
      5992        13.9850          84.65          76.70           8.36
      5993        13.9870          77.30          76.71           8.08
      5994        13.9890          77.21          76.71           8.05
      5995        13.9910          81.56          76.72           8.24
      5996        13.9930          78.04          76.73           8.05
      5997        13.9950          74.62          76.74           7.86
      5998        13.9970          74.71          76.74           7.88
      5999        13.9990          69.60          76.75          10.42
      6000        14.0010          80.30          76.76           8.40
      6001        14.0030          77.15          76.77           8.29
      6002        14.0050          82.66          76.79           8.58
      6003        14.0070          76.23          76.80           8.29
      6004        14.0090          91.53          76.81           9.04
      6005        14.0110          79.04          76.83           8.42
      6006        14.0130          76.68          76.84           8.22
      6007        14.0150          76.38          76.86           8.22
      6008        14.0170          88.77          76.88           8.77
      6009        14.0190          73.77          76.89           8.10
      6010        14.0210          78.88          76.91           8.35
      6011        14.0230          79.97          76.94           8.42
      6012        14.0250          74.66          76.96           8.11
      6013        14.0270          69.45          76.98           7.78
      6014        14.0290          72.83          77.01           7.94
      6015        14.0310          75.19          77.04           8.11
      6016        14.0330          92.47          77.07           9.01
      6017        14.0350          87.59          77.10           8.75
      6018        14.0370          75.00          77.14           8.15
      6019        14.0390          89.48          77.17           8.93
      6020        14.0410          82.38          77.21           8.54
      6021        14.0430          87.09          77.26           8.70
      6022        14.0450          87.08          77.30           8.78
      6023        14.0470          82.65          77.36           8.56
      6024        14.0490          77.95          77.41           8.29
      6025        14.0510          86.31          77.47           8.66
      6026        14.0530          77.57          77.54           8.26
      6027        14.0550          83.47          77.61           8.52
      6028        14.0570          79.44          77.68           8.37
      6029        14.0590          91.55          77.77           9.04
      6030        14.0610          86.31          77.86           8.74
      6031        14.0630          74.72          77.96           8.14
      6032        14.0650          70.25          78.07           7.91
      6033        14.0670          69.63          78.19           7.88
      6034        14.0690          84.44          78.33           8.67
      6035        14.0710          89.20          78.47           8.85
      6036        14.0730          71.19          78.64           7.92
      6037        14.0750          79.09          78.83           8.36
      6038        14.0770          85.93          79.03           8.70
      6039        14.0790          77.00          79.26           8.23
      6040        14.0810          66.93          79.53           7.67
      6041        14.0830          74.42          79.83           8.09
      6042        14.0850          77.05          80.17           8.30
      6043        14.0870          70.30          80.56           7.88
      6044        14.0890          79.13          81.01           8.31
      6045        14.0910          94.88          81.53           9.10
      6046        14.0930          87.65          82.14           8.84
      6047        14.0950          87.70          82.86           8.76
      6048        14.0970          83.23          83.73           8.58
      6049        14.0990          89.49          84.76           8.86
      6050        14.1010          83.92          86.03           8.57
      6051        14.1030          89.62          87.59           8.90
      6052        14.1050          87.19          89.55           8.78
      6053        14.1070          81.42          92.06           8.54
      6054        14.1090          99.95          95.32           9.40
      6055        14.1110         102.39          99.67           9.49
      6056        14.1130          98.95         105.66           9.38
      6057        14.1150         110.26         114.28           9.89
      6058        14.1170         136.84         127.73          10.97
      6059        14.1190         161.62         151.98          12.05
      6060        14.1210         220.22         201.52          13.99
      6061        14.1230         342.58         301.78          17.33
      6062        14.1250         683.34         474.59          24.54
      6063        14.1270        1012.52         688.65          29.91
      6064        14.1290         884.83         776.14          27.38
      6065        14.1310         476.36         623.73          20.06
      6066        14.1330         244.53         412.38          14.54
      6067        14.1350         184.52         263.03          12.61
      6068        14.1370         152.64         181.81          11.60
      6069        14.1390         153.43         142.50          11.66
      6070        14.1410         124.54         122.69          10.49
      6071        14.1430         111.06         111.15           9.92
      6072        14.1450         106.58         103.51           9.77
      6073        14.1470         102.81          98.11           9.57
      6074        14.1490          98.51          94.14           9.33
      6075        14.1510          80.52          91.14           8.47
      6076        14.1530          82.29          88.82           8.51
      6077        14.1550          89.70          86.99           8.93
      6078        14.1570          97.47          85.52           9.30
      6079        14.1590          86.43          84.33           8.79
      6080        14.1610          91.33          83.35           8.93
      6081        14.1630          80.22          82.53           8.38
      6082        14.1650          81.68          81.84           8.52
      6083        14.1670          95.46          81.25           9.22
      6084        14.1690          93.08          80.74           9.00
      6085        14.1710          83.61          80.31           8.58
      6086        14.1730          75.48          79.93           8.21
      6087        14.1750          83.47          79.60           8.56
      6088        14.1770          85.76          79.31           8.71
      6089        14.1790          83.82          79.05           8.62
      6090        14.1810          85.44          78.82           8.71
      6091        14.1830          77.31          78.61           8.22
      6092        14.1850          71.08          78.43           7.85
      6093        14.1870          74.48          78.26           8.06
      6094        14.1890          95.02          78.11           9.10
      6095        14.1910          81.53          77.98           8.43
      6096        14.1930          74.56          77.85           8.01
      6097        14.1950          73.68          77.74           8.04
      6098        14.1970          80.14          77.64           8.47
      6099        14.1990          79.15          77.54           8.40
      6100        14.2010          82.87          77.46           8.56
      6101        14.2030          90.15          77.38           8.80
      6102        14.2050          70.11          77.30           7.82
      6103        14.2070          76.40          77.23           8.17
      6104        14.2090          83.41          77.17           8.53
      6105        14.2110          92.09          77.11           9.01
      6106        14.2130          78.41          77.05           8.36
      6107        14.2150          69.57          77.00           7.89
      6108        14.2170          75.20          76.95           8.15
      6109        14.2190          74.11          76.91           8.09
      6110        14.2210          71.78          76.87           7.93
      6111        14.2230          83.46          76.83           8.48
      6112        14.2250          80.96          76.79           8.45
      6113        14.2270          73.99          76.75           8.07
      6114        14.2290          78.43          76.72           8.32
      6115        14.2310          85.67          76.69           8.73
      6116        14.2330          85.92          76.66           8.74
      6117        14.2350          77.12          76.63           8.27
      6118        14.2370          82.72          76.61           8.50
      6119        14.2390          77.42          76.58           8.33
      6120        14.2410          69.83          76.56           7.92
      6121        14.2430          78.27          76.54           8.38
      6122        14.2450          76.29          76.51           8.24
      6123        14.2470          76.78          76.49           8.21
      6124        14.2490          78.98          76.47           8.37
      6125        14.2510          74.56          76.46           8.12
      6126        14.2530          67.43          76.44           7.66
      6127        14.2550          62.72          76.42           7.40
      6128        14.2570          80.62          76.40           8.36
      6129        14.2590          73.70          76.39           8.09
      6130        14.2610          87.96          76.37           8.86
      6131        14.2630          83.40          76.36           8.61
      6132        14.2650          69.50          76.35           7.85
      6133        14.2670          64.31          76.33           7.51
      6134        14.2690          64.92          76.32           7.55
      6135        14.2710          70.78          76.31           7.93
      6136        14.2730          75.06          76.30           8.14
      6137        14.2750          74.44          76.29           8.08
      6138        14.2770          82.07          76.28           8.54
      6139        14.2790          77.85          76.27           8.30
      6140        14.2810          85.69          76.26           8.64
      6141        14.2830          77.89          76.25           8.31
      6142        14.2850          77.97          76.24           8.32
      6143        14.2870          75.24          76.23           8.20
      6144        14.2890          79.85          76.22           8.45
      6145        14.2910          72.60          76.21           8.01
      6146        14.2930          76.59          76.21           8.20
      6147        14.2950          92.40          75.92           9.10
      6148        14.2970          93.63          75.92           9.18
      6149        14.2990          77.23          75.92           8.35
      6150        14.3010          69.39          75.92           7.87
      6151        14.3030          76.98          75.92           8.22
      6152        14.3050          79.51          75.92           8.38
      6153        14.3070          73.91          75.92           8.07
      6154        14.3090          78.71          75.92           8.32
      6155        14.3110          70.21          75.92           7.86
      6156        14.3130          79.62          75.92           8.33
      6157        14.3150          91.52          75.92           8.95
      6158        14.3170          82.93          75.92           8.50
      6159        14.3190          82.40          75.92           8.51
      6160        14.3210          73.93          75.92           8.05
      6161        14.3230          66.03          75.92           7.51
      6162        14.3250          61.76          75.92           7.29
      6163        14.3270          68.55          75.92           7.77
      6164        14.3290          78.89          75.92           8.28
      6165        14.3310          70.90          75.92           7.91
      6166        14.3330          85.95          75.92           8.68
      6167        14.3350          79.28          75.92           8.35
      6168        14.3370          76.13          75.92           8.21
      6169        14.3390          72.01          75.92           8.00
      6170        14.3410          75.55          75.92           8.15
      6171        14.3430          87.22          75.92           8.77
      6172        14.3450          93.07          75.92           9.02
      6173        14.3470          71.77          75.92           7.98
      6174        14.3490          67.86          75.92           7.77
      6175        14.3510          77.45          75.92           8.29
      6176        14.3530          77.10          75.92           8.33
      6177        14.3550          81.89          75.92           8.56
      6178        14.3570          84.31          75.92           8.63
      6179        14.3590          92.31          75.92           8.95
      6180        14.3610          69.28          75.92           7.82
      6181        14.3630          76.18          75.92           8.24
      6182        14.3650          77.73          75.92           8.35
      6183        14.3670          74.23          75.92           8.12
      6184        14.3690          72.66          75.92           7.99
      6185        14.3710          70.98          75.92           7.87
      6186        14.3730          79.04          75.92           8.32
      6187        14.3750          72.36          75.92           8.04
      6188        14.3770          80.53          75.93           8.42
      6189        14.3790          65.09          75.93           7.53
      6190        14.3810          65.04          75.93           7.49
      6191        14.3830          75.62          75.93           8.08
      6192        14.3850          74.26          75.93           8.07
      6193        14.3870          77.75          75.93           8.27
      6194        14.3890          71.99          75.93           7.99
      6195        14.3910          85.24          75.93           8.74
      6196        14.3930          74.03          75.93           8.12
      6197        14.3950          72.97          75.93           8.00
      6198        14.3970          71.32          75.93           7.93
      6199        14.3990          68.56          75.94           7.76
      6200        14.4010          64.33          75.94           7.52
      6201        14.4030          79.14          75.94           8.38
      6202        14.4050          76.79          75.94           8.24
      6203        14.4070          78.92          75.94           8.32
      6204        14.4090          75.64          75.94           8.18
      6205        14.4110          78.40          75.94           8.30
      6206        14.4130          73.84          75.94           8.01
      6207        14.4150          64.78          75.95           7.54
      6208        14.4170          64.03          75.95           7.53
      6209        14.4190          64.32          75.95           7.53
      6210        14.4210          84.51          75.95           8.59
      6211        14.4230          73.01          75.95           8.05
      6212        14.4250          77.51          75.95           8.36
      6213        14.4270          88.23          75.95           8.91
      6214        14.4290          75.93          75.96           8.22
      6215        14.4310          76.36          75.96           8.19
      6216        14.4330          82.69          75.96           8.55
      6217        14.4350          77.49          75.96           8.36
      6218        14.4370          86.57          75.96           8.75
      6219        14.4390          80.87          75.96           8.51
      6220        14.4410          78.04          75.97           8.32
      6221        14.4430          88.50          75.97           8.79
      6222        14.4450          87.64          75.97           8.70
      6223        14.4470          73.45          75.97           7.99
      6224        14.4490          92.30          75.97           8.94
      6225        14.4510          80.04          75.97           8.41
      6226        14.4530          81.35          75.98           8.41
      6227        14.4550          72.23          75.98           7.89
      6228        14.4570          68.11          75.98           7.68
      6229        14.4590          71.91          75.98           7.92
      6230        14.4610          83.07          75.98           8.51
      6231        14.4630          71.05          75.99           7.89
      6232        14.4650          71.54          75.99           7.91
      6233        14.4670          73.62          75.99           8.06
      6234        14.4690          81.68          75.99           8.50
      6235        14.4710          83.13          76.00           8.60
      6236        14.4730          73.35          76.00           8.06
      6237        14.4750          78.64          76.00           8.29
      6238        14.4770          66.86          76.00           7.68
      6239        14.4790          70.49          76.00           7.92
      6240        14.4810          83.40          76.01           8.56
      6241        14.4830          77.98          76.01           8.34
      6242        14.4850          69.54          76.01           7.87
      6243        14.4870          64.01          76.01           7.51
      6244        14.4890          78.23          76.02           8.26
      6245        14.4910          84.32          76.02           8.66
      6246        14.4930          74.98          76.02           8.15
      6247        14.4950          67.74          76.02           7.76
      6248        14.4970          77.48          76.03           8.31
      6249        14.4990          76.12          76.03           8.28
      6250        14.5010          69.56          76.03           7.91
      6251        14.5030          72.44          76.04           8.06
      6252        14.5050          82.77          76.04           8.55
      6253        14.5070          70.98          76.04           7.90
      6254        14.5090          73.05          76.04           8.04
      6255        14.5110          83.11          76.05           8.57
      6256        14.5130          75.13          76.05           8.17
      6257        14.5150          77.50          76.05           8.27
      6258        14.5170          74.35          76.05           8.09
      6259        14.5190          82.82          76.06           8.56
      6260        14.5210          70.01          76.06           7.86
      6261        14.5230          67.58          76.06           7.71
      6262        14.5250          66.95          76.07           7.70
      6263        14.5270          68.02          76.07           7.79
      6264        14.5290          79.30          76.07           8.35
      6265        14.5310          72.05          76.08           7.90
      6266        14.5330          76.56          76.08           8.12
      6267        14.5350          66.05          76.08           7.64
      6268        14.5370          82.27          76.09           8.50
      6269        14.5390          81.36          76.09           8.55
      6270        14.5410          88.82          76.09           8.85
      6271        14.5430          81.65          76.10           8.42
      6272        14.5450          79.16          76.10           8.29
      6273        14.5470          83.48          76.10           8.63
      6274        14.5490          87.26          76.11           8.77
      6275        14.5510          76.73          76.11           8.21
      6276        14.5530          74.49          76.11           8.13
      6277        14.5550          78.78          76.12           8.32
      6278        14.5570          67.21          76.12           7.71
      6279        14.5590          57.65          76.12           7.16
      6280        14.5610          71.61          76.13           7.92
      6281        14.5630          76.02          76.13           8.14
      6282        14.5650          72.90          76.13           8.01
      6283        14.5670          77.89          76.14           8.31
      6284        14.5690          82.56          76.14           8.54
      6285        14.5710          84.81          76.15           8.66
      6286        14.5730          72.41          76.15           8.01
      6287        14.5750          77.40          76.15           8.27
      6288        14.5770          77.44          76.16           8.26
      6289        14.5790          68.19          76.16           7.76
      6290        14.5810          68.86          76.16           7.81
      6291        14.5830          84.69          76.17           8.64
      6292        14.5850          84.15          76.17           8.63
      6293        14.5870          78.44          76.18           8.35
      6294        14.5890          84.29          76.18           8.59
      6295        14.5910          78.39          76.18           8.25
      6296        14.5930          73.31          76.19           8.03
      6297        14.5950          73.96          76.19           8.02
      6298        14.5970          68.40          76.20           7.76
      6299        14.5990          90.62          76.20           8.95
      6300        14.6010          80.91          76.21           8.45
      6301        14.6030          75.58          76.21           8.18
      6302        14.6050          75.78          76.21           8.22
      6303        14.6070          66.26          76.22           7.67
      6304        14.6090          69.51          76.22           7.84
      6305        14.6110          71.72          76.23           8.02
      6306        14.6130          69.50          76.23           7.81
      6307        14.6150          81.10          76.24           8.39
      6308        14.6170          97.67          76.24           9.23
      6309        14.6190          76.47          76.24           8.26
      6310        14.6210          87.34          76.25           8.74
      6311        14.6230          79.04          76.25           8.36
      6312        14.6250          80.69          76.26           8.41
      6313        14.6270          68.54          76.26           7.81
      6314        14.6290          71.12          76.27           7.92
      6315        14.6310          75.19          76.27           8.18
      6316        14.6330          78.67          76.28           8.39
      6317        14.6350          71.44          76.28           8.01
      6318        14.6370          74.88          76.29           8.15
      6319        14.6390          79.44          76.29           8.40
      6320        14.6410          80.38          76.30           8.36
      6321        14.6430          75.55          76.30           8.06
      6322        14.6450          65.85          76.31           7.61
      6323        14.6470          75.61          76.31           8.11
      6324        14.6490          69.48          76.32           7.81
      6325        14.6510          74.21          76.32           8.10
      6326        14.6530          76.97          76.33           8.26
      6327        14.6550          85.21          76.33           8.69
      6328        14.6570          74.43          76.34           8.08
      6329        14.6590          81.01          76.34           8.38
      6330        14.6610          72.48          76.35           8.05
      6331        14.6630          77.58          76.35           8.26
      6332        14.6650          69.40          76.36           7.86
      6333        14.6670          71.53          76.36           7.96
      6334        14.6690          77.92          76.37           8.30
      6335        14.6710          76.13          76.37           8.21
      6336        14.6730          68.19          76.38           7.77
      6337        14.6750          72.79          76.38           7.97
      6338        14.6770          64.75          76.39           7.59
      6339        14.6790          69.18          76.39           7.87
      6340        14.6810          67.81          76.40           7.75
      6341        14.6830          74.43          76.40           8.10
      6342        14.6850          80.36          76.41           8.46
      6343        14.6870          79.29          76.42           8.34
      6344        14.6890          72.85          76.42           8.06
      6345        14.6910          82.04          76.43           8.55
      6346        14.6930          79.57          76.43           8.38
      6347        14.6950          71.90          76.44           8.00
      6348        14.6970          78.03          76.44           8.31
      6349        14.6990          87.80          76.45           8.83
      6350        14.7010          83.64          76.46           8.66
      6351        14.7030          78.58          76.46           8.34
      6352        14.7050          68.42          76.47           7.79
      6353        14.7070          71.76          76.47           7.95
      6354        14.7090          73.65          76.48           8.04
      6355        14.7110          80.43          76.48           8.37
      6356        14.7130          67.41          76.49           7.75
      6357        14.7150          76.43          76.50           8.24
      6358        14.7170          72.74          76.50           8.01
      6359        14.7190          63.92          76.51           7.54
      6360        14.7210          75.92          76.51           8.21
      6361        14.7230          82.75          76.52           8.60
      6362        14.7250          76.99          76.53           8.25
      6363        14.7270          61.51          76.53           7.38
      6364        14.7290          76.91          76.54           8.19
      6365        14.7310          72.36          76.54           7.99
      6366        14.7330          77.44          76.55           8.26
      6367        14.7350          79.49          76.56           8.42
      6368        14.7370          82.34          76.56           8.52
      6369        14.7390          68.18          76.57           7.78
      6370        14.7410          71.36          76.58           7.92
      6371        14.7430          76.06          76.58           8.20
      6372        14.7450          81.88          76.59           8.56
      6373        14.7470          69.53          76.60           7.93
      6374        14.7490          85.10          76.60           8.66
      6375        14.7510          83.24          76.61           8.59
      6376        14.7530          75.75          76.61           8.19
      6377        14.7550          74.44          76.62           8.07
      6378        14.7570          64.05          76.63           7.57
      6379        14.7590          83.26          76.63           8.58
      6380        14.7610          80.55          76.64           8.44
      6381        14.7630          76.91          76.65           8.23
      6382        14.7650          70.96          76.65           7.87
      6383        14.7670          71.82          76.66           7.94
      6384        14.7690          82.70          76.67           8.54
      6385        14.7710          84.27          76.67           8.61
      6386        14.7730          68.97          76.68           7.83
      6387        14.7750          72.47          76.69           7.99
      6388        14.7770          78.47          76.69           8.31
      6389        14.7790          76.77          76.70           8.23
      6390        14.7810          81.13          76.71           8.45
      6391        14.7830          76.56          76.72           8.12
      6392        14.7850          71.54          76.72           7.89
      6393        14.7870          87.41          76.73           8.78
      6394        14.7890          74.64          76.74           8.12
      6395        14.7910          75.10          76.74           8.18
      6396        14.7930          74.93          76.75           8.17
      6397        14.7950          80.65          76.76           8.45
      6398        14.7970          79.07          76.77           8.32
      6399        14.7990          65.25          76.77           7.58
      6400        14.8010          84.56          76.78           8.63
      6401        14.8030          92.01          76.79           9.04
      6402        14.8050          80.51          76.79           8.48
      6403        14.8070          79.30          76.80           8.38
      6404        14.8090          81.61          76.81           8.47
      6405        14.8110          70.36          76.82           7.87
      6406        14.8130          82.23          76.82           8.47
      6407        14.8150          86.28          76.83           8.62
      6408        14.8170          64.00          76.84           7.50
      6409        14.8190          66.65          76.85           7.66
      6410        14.8210          60.56          76.85           7.30
      6411        14.8230          67.59          76.86           7.70
      6412        14.8250          75.21          76.87           8.10
      6413        14.8270          63.39          76.88           7.52
      6414        14.8290          80.03          76.88           8.37
      6415        14.8310          70.63          76.89           7.84
      6416        14.8330          61.62          76.90           7.28
      6417        14.8350          66.18          76.91           7.54
      6418        14.8370          73.77          76.91           8.07
      6419        14.8390          76.48          76.92           8.23
      6420        14.8410          78.19          76.93           8.29
      6421        14.8430          60.95          76.94           7.42
      6422        14.8450          76.67          76.94           8.24
      6423        14.8470          73.42          76.95           8.01
      6424        14.8490          63.00          76.96           7.44
      6425        14.8510          80.14          76.97           8.38
      6426        14.8530          89.49          76.98           8.81
      6427        14.8550          77.98          76.98           8.30
      6428        14.8570          74.61          76.99           8.10
      6429        14.8590          67.64          77.00           7.72
      6430        14.8610          74.04          77.01           8.12
      6431        14.8630          71.09          77.02           7.90
      6432        14.8650          67.53          77.02           7.69
      6433        14.8670          80.69          77.03           8.42
      6434        14.8690          80.28          77.04           8.34
      6435        14.8710          72.43          77.05           7.90
      6436        14.8730          81.45          77.06           8.35
      6437        14.8750          69.16          77.07           7.79
      6438        14.8770          76.80          77.07           8.23
      6439        14.8790          79.33          77.08           8.35
      6440        14.8810          72.19          77.09           8.04
      6441        14.8830          75.03          77.10           8.17
      6442        14.8850          69.56          77.11           7.80
      6443        14.8870          73.80          77.12           8.04
      6444        14.8890          83.05          77.12           8.58
      6445        14.8910          77.04          77.13           8.20
      6446        14.8930          77.51          77.14           8.18
      6447        14.8950          74.41          77.15           8.10
      6448        14.8970          78.35          77.16           8.28
      6449        14.8990          75.37          77.17           8.12
      6450        14.9010          80.14          77.17           8.36
      6451        14.9030          76.37          77.18           8.21
      6452        14.9050          75.32          77.19           8.11
      6453        14.9070          74.91          77.20           8.15
      6454        14.9090          84.28          77.21           8.57
      6455        14.9110          89.31          77.22           8.82
      6456        14.9130          85.87          77.23           8.68
      6457        14.9150          71.85          77.24           7.97
      6458        14.9170          66.72          77.24           7.68
      6459        14.9190          68.06          77.25           7.74
      6460        14.9210          72.14          77.26           7.92
      6461        14.9230          61.75          77.27           7.38
      6462        14.9250          69.65          77.28           7.80
      6463        14.9270          65.45          77.29           7.64
      6464        14.9290          83.19          77.30           8.62
      6465        14.9310          83.91          77.41           8.65
      6466        14.9330          76.37          77.42           8.21
      6467        14.9350          65.67          77.43           7.62
      6468        14.9370          77.52          77.45           8.22
      6469        14.9390          76.26          77.46           8.21
      6470        14.9410          77.01          77.47           8.25
      6471        14.9430          83.14          77.48           8.48
      6472        14.9450          80.16          77.49           8.35
      6473        14.9470          84.50          77.51           8.63
      6474        14.9490          68.33          77.52           7.74
      6475        14.9510          74.58          77.53           8.09
      6476        14.9530          81.99          77.54           8.51
      6477        14.9550          80.98          77.56           8.44
      6478        14.9570          80.47          77.57           8.40
      6479        14.9590          69.64          77.58           7.82
      6480        14.9610          78.11          77.60           8.19
      6481        14.9630          64.60          77.61           7.56
      6482        14.9650          67.75          77.62           7.78
      6483        14.9670          67.97          77.64           7.73
      6484        14.9690          79.50          77.65           8.36
      6485        14.9710          74.63          77.67           8.09
      6486        14.9730          74.52          77.68           8.05
      6487        14.9750          77.44          77.70           8.28
      6488        14.9770          75.29          77.71           8.19
      6489        14.9790          79.61          77.73           8.46
      6490        14.9810          77.75          77.74           8.33
      6491        14.9830          88.81          77.76           8.79
      6492        14.9850          86.04          77.77           8.70
      6493        14.9870          75.95          77.79           8.22
      6494        14.9890          74.78          77.81           8.01
      6495        14.9910          74.65          77.83           7.99
      6496        14.9930          87.03          77.84           8.76
      6497        14.9950          81.63          77.86           8.52
      6498        14.9970          64.70          77.88           7.59
      6499        14.9990          66.97          77.90           7.63
      6500        15.0010          73.00          77.92           7.99
      6501        15.0030          80.87          77.94           8.44
      6502        15.0050          77.55          77.96           8.26
      6503        15.0070          78.21          77.98           8.25
      6504        15.0090          74.75          78.01           8.08
      6505        15.0110          84.40          78.03           8.58
      6506        15.0130          70.66          78.06           7.87
      6507        15.0150          78.04          78.08           8.21
      6508        15.0170          77.78          78.11           8.21
      6509        15.0190          64.00          78.13           7.54
      6510        15.0210          71.42          78.16           7.95
      6511        15.0230          79.03          78.19           8.37
      6512        15.0250          93.07          78.22           8.94
      6513        15.0270          79.14          78.26           8.27
      6514        15.0290          82.61          78.29           8.48
      6515        15.0310          87.14          78.33           8.77
      6516        15.0330          80.65          78.37           8.49
      6517        15.0350          86.01          78.41           8.64
      6518        15.0370          72.38          78.45           7.96
      6519        15.0390          68.91          78.50           7.79
      6520        15.0410          80.33          78.55           8.33
      6521        15.0430          77.16          78.60           8.22
      6522        15.0450          79.02          78.66           8.30
      6523        15.0470          84.95          78.72           8.63
      6524        15.0490          87.15          78.79           8.73
      6525        15.0510          88.29          78.86           8.78
      6526        15.0530          86.18          78.94           8.73
      6527        15.0550          80.60          79.03           8.44
      6528        15.0570          74.84          79.13           8.10
      6529        15.0590          77.10          79.23           8.24
      6530        15.0610          78.79          79.35           8.38
      6531        15.0630          77.44          79.48           8.21
      6532        15.0650          75.43          79.63           8.07
      6533        15.0670          69.97          79.80           7.83
      6534        15.0690          83.53          79.99           8.53
      6535        15.0710          86.76          80.22           8.72
      6536        15.0730          94.41          80.47           9.06
      6537        15.0750          77.20          80.77           8.27
      6538        15.0770          71.51          81.12           7.92
      6539        15.0790          70.99          81.54           7.88
      6540        15.0810          77.67          82.04           8.23
      6541        15.0830          84.78          82.66           8.72
      6542        15.0850          92.69          83.42           9.07
      6543        15.0870          86.03          84.38           8.69
      6544        15.0890          90.55          85.61           8.91
      6545        15.0910          85.48          87.23           8.71
      6546        15.0930          79.12          89.40           8.36
      6547        15.0950          81.21          92.48           8.43
      6548        15.0970          75.89          97.18           8.19
      6549        15.0990          76.16         105.36           8.20
      6550        15.1010         100.14         121.39           9.34
      6551        15.1030         111.99         152.89           9.97
      6552        15.1050         159.45         207.43          11.96
      6553        15.1070         258.03         282.22          15.18
      6554        15.1090         347.64         342.62          17.80
      6555        15.1110         358.69         328.80          17.36
      6556        15.1130         325.70         257.05          16.35
      6557        15.1150         198.16         187.13          12.85
      6558        15.1170         128.66         140.57          10.39
      6559        15.1190         108.26         115.05           9.59
      6560        15.1210          83.30         102.26           8.55
      6561        15.1230          96.23          95.55           9.09
      6562        15.1250          83.60          91.53           8.67
      6563        15.1270          90.23          88.81           8.86
      6564        15.1290          79.24          86.87           8.32
      6565        15.1310          80.24          85.41           8.46
      6566        15.1330          83.44          84.30           8.61
      6567        15.1350          91.59          83.44           8.94
      6568        15.1370          72.68          82.75           8.05
      6569        15.1390          86.31          82.19           8.70
      6570        15.1410          76.87          81.74           8.23
      6571        15.1430          83.41          81.37           8.50
      6572        15.1450          75.33          81.06           8.12
      6573        15.1470          78.69          80.80           8.34
      6574        15.1490          86.20          80.57           8.71
      6575        15.1510          77.68          80.39           8.27
      6576        15.1530          85.40          80.22           8.71
      6577        15.1550          84.58          80.08           8.60
      6578        15.1570          78.99          79.96           8.30
      6579        15.1590          73.48          79.86           8.15
      6580        15.1610          85.05          79.76           8.70
      6581        15.1630          90.96          79.68           8.96
      6582        15.1650          84.74          79.61           8.69
      6583        15.1670          86.36          79.55           8.72
      6584        15.1690          79.62          79.49           8.40
      6585        15.1710          88.35          79.44           8.82
      6586        15.1730          80.50          79.40           8.43
      6587        15.1750          80.00          79.36           8.39
      6588        15.1770          75.20          79.33           8.15
      6589        15.1790          68.43          79.30           7.81
      6590        15.1810          77.19          79.27           8.28
      6591        15.1830          90.97          79.25           8.95
      6592        15.1850          86.84          79.23           8.73
      6593        15.1870          90.15          79.21           8.85
      6594        15.1890          83.18          79.19           8.55
      6595        15.1910          88.90          79.18           8.80
      6596        15.1930          78.83          79.16           8.31
      6597        15.1950          75.33          79.15           8.16
      6598        15.1970          76.70          79.14           8.24
      6599        15.1990          83.59          79.14           8.61
      6600        15.2010          94.52          79.13           9.19
      6601        15.2030          87.90          79.13           8.90
      6602        15.2050          89.48          79.12           8.90
      6603        15.2070          78.07          79.12           8.27
      6604        15.2090          74.58          79.12           8.07
      6605        15.2110          81.56          79.12           8.51
      6606        15.2130          78.06          79.11           8.29
      6607        15.2150          82.87          79.11           8.52
      6608        15.2170          90.83          79.12           8.96
      6609        15.2190          76.79          79.12           8.21
      6610        15.2210          82.83          79.12           8.52
      6611        15.2230          86.88          79.12           8.68
      6612        15.2250          70.43          79.13           7.86
      6613        15.2270          75.19          79.13           8.08
      6614        15.2290          71.50          79.13           7.89
      6615        15.2310          74.24          79.14           8.06
      6616        15.2330          88.97          79.14           8.85
      6617        15.2350          85.29          79.15           8.69
      6618        15.2370          84.07          79.15           8.63
      6619        15.2390          84.47          79.16           8.61
      6620        15.2410          78.27          79.16           8.32
      6621        15.2430          92.98          79.17           9.06
      6622        15.2450          90.54          79.18           8.98
      6623        15.2470          83.33          79.18           8.60
      6624        15.2490          75.09          79.19           8.17
      6625        15.2510          76.61          79.20           8.24
      6626        15.2530          84.24          79.21           8.61
      6627        15.2550          83.38          79.21           8.59
      6628        15.2570          90.98          79.22           8.92
      6629        15.2590          79.58          79.23           8.45
      6630        15.2610          75.26          79.24           8.14
      6631        15.2630          69.08          79.25           7.79
      6632        15.2650          76.37          79.26           8.17
      6633        15.2670          75.50          79.27           8.15
      6634        15.2690          83.27          79.27           8.56
      6635        15.2710          79.68          79.28           8.38
      6636        15.2730          80.33          79.29           8.40
      6637        15.2750          77.01          79.30           8.20
      6638        15.2770          68.38          79.31           7.80
      6639        15.2790          81.71          79.32           8.51
      6640        15.2810          83.31          79.33           8.54
      6641        15.2830          68.69          79.34           7.78
      6642        15.2850          80.52          79.35           8.39
      6643        15.2870          69.51          79.36           7.81
      6644        15.2890          78.53          79.37           8.24
      6645        15.2910          86.47          79.28           8.72
      6646        15.2930          90.68          79.29           8.98
      6647        15.2950          79.57          79.30           8.42
      6648        15.2970          70.33          79.32           7.97
      6649        15.2990          78.08          79.33           8.33
      6650        15.3010          82.80          79.34           8.48
      6651        15.3030          75.70          79.36           8.13
      6652        15.3050          71.33          79.37           7.94
      6653        15.3070          80.21          79.38           8.38
      6654        15.3090          76.01          79.39           8.25
      6655        15.3110          83.38          79.41           8.59
      6656        15.3130          79.75          79.42           8.38
      6657        15.3150          80.80          79.43           8.45
      6658        15.3170          81.40          79.44           8.49
      6659        15.3190          77.66          79.46           8.28
      6660        15.3210          84.47          79.47           8.57
      6661        15.3230          82.91          79.48           8.55
      6662        15.3250          80.12          79.50           8.38
      6663        15.3270          73.21          79.51           8.02
      6664        15.3290          93.62          79.52           9.08
      6665        15.3310          83.92          79.53           8.60
      6666        15.3330          67.98          79.55           7.78
      6667        15.3350          74.80          79.56           8.15
      6668        15.3370          80.07          79.57           8.42
      6669        15.3390          82.74          79.59           8.56
      6670        15.3410          77.34          79.60           8.30
      6671        15.3430          78.51          79.61           8.34
      6672        15.3450          91.82          79.62           8.94
      6673        15.3470          88.90          79.64           8.80
      6674        15.3490          82.84          79.65           8.54
      6675        15.3510          86.38          79.66           8.73
      6676        15.3530          97.84          79.68           9.32
      6677        15.3550          87.88          79.69           8.86
      6678        15.3570          94.23          79.70           9.08
      6679        15.3590          81.48          79.71           8.45
      6680        15.3610          72.33          79.73           8.01
      6681        15.3630          86.91          79.74           8.74
      6682        15.3650          72.77          79.75           7.98
      6683        15.3670          71.50          79.77           7.86
      6684        15.3690          74.46          79.78           8.02
      6685        15.3710          75.06          79.79           8.09
      6686        15.3730          92.19          79.81           8.94
      6687        15.3750          80.49          79.82           8.41
      6688        15.3770          78.56          79.83           8.34
      6689        15.3790          80.97          79.84           8.41
      6690        15.3810          85.11          79.86           8.65
      6691        15.3830          82.10          79.87           8.51
      6692        15.3850          78.67          79.88           8.30
      6693        15.3870          81.02          79.90           8.42
      6694        15.3890          79.40          79.91           8.32
      6695        15.3910          78.88          80.15           8.31
      6696        15.3930          93.00          80.17           9.09
      6697        15.3950          88.16          80.18           8.82
      6698        15.3970          86.85          80.20           8.68
      6699        15.3990          74.72          80.22           8.11
      6700        15.4010          85.24          80.24           8.67
      6701        15.4030          85.67          80.26           8.68
      6702        15.4050          78.74          80.28           8.29
      6703        15.4070          79.69          80.30           8.38
      6704        15.4090          86.48          80.32           8.82
      6705        15.4110          90.74          80.34           8.93
      6706        15.4130          83.97          80.36           8.58
      6707        15.4150          75.64          80.38           8.19
      6708        15.4170          65.81          80.40           7.69
      6709        15.4190          76.33          80.42           8.16
      6710        15.4210          73.12          80.44           8.02
      6711        15.4230          77.24          80.46           8.24
      6712        15.4250          71.72          80.48           7.93
      6713        15.4270          79.91          80.51           8.37
      6714        15.4290          83.39          80.53           8.54
      6715        15.4310          81.91          80.55           8.43
      6716        15.4330          70.43          80.58           7.88
      6717        15.4350          77.76          80.60           8.27
      6718        15.4370          88.84          80.62           8.86
      6719        15.4390          79.63          80.65           8.43
      6720        15.4410          82.27          80.67           8.46
      6721        15.4430          80.03          80.70           8.39
      6722        15.4450          72.39          80.73           7.93
      6723        15.4470          73.56          80.75           7.93
      6724        15.4490          83.88          80.78           8.50
      6725        15.4510          73.16          80.81           7.98
      6726        15.4530          78.14          80.84           8.22
      6727        15.4550          85.33          80.87           8.63
      6728        15.4570          82.82          80.90           8.55
      6729        15.4590          84.40          80.93           8.62
      6730        15.4610          73.59          80.96           8.07
      6731        15.4630          82.85          81.00           8.47
      6732        15.4650          74.22          81.03           8.08
      6733        15.4670          76.26          81.07           8.17
      6734        15.4690          66.75          81.10           7.71
      6735        15.4710          70.20          81.14           7.84
      6736        15.4730          83.96          81.18           8.51
      6737        15.4750          89.82          81.22           8.85
      6738        15.4770          76.48          81.27           8.20
      6739        15.4790          74.95          81.31           8.11
      6740        15.4810          86.93          81.36           8.68
      6741        15.4830          78.16          81.41           8.28
      6742        15.4850          82.36          81.46           8.51
      6743        15.4870          84.03          81.51           8.65
      6744        15.4890          85.01          81.57           8.64
      6745        15.4910          74.77          81.63           8.10
      6746        15.4930          76.84          81.69           8.20
      6747        15.4950          84.69          81.76           8.62
      6748        15.4970          79.70          81.83           8.35
      6749        15.4990          81.54          81.91           8.45
      6750        15.5010          87.04          81.99           8.72
      6751        15.5030          78.73          82.07           8.34
      6752        15.5050          83.98          82.16           8.63
      6753        15.5070          81.20          82.26           8.48
      6754        15.5090          82.25          82.37           8.50
      6755        15.5110          84.37          82.48           8.53
      6756        15.5130          74.61          82.60           8.05
      6757        15.5150          92.55          82.74           8.96
      6758        15.5170          79.99          82.89           8.39
      6759        15.5190          77.70          83.05           8.26
      6760        15.5210          83.23          83.22           8.56
      6761        15.5230          80.95          83.41           8.51
      6762        15.5250          91.00          83.63           8.99
      6763        15.5270          80.61          83.87           8.40
      6764        15.5290          88.25          84.13           8.73
      6765        15.5310          89.51          84.43           8.92
      6766        15.5330         111.96          84.77           9.91
      6767        15.5350          95.84          85.15           9.26
      6768        15.5370         102.20          85.59           9.53
      6769        15.5390          94.16          86.10           9.13
      6770        15.5410         100.85          86.69           9.38
      6771        15.5430          95.07          87.37           9.20
      6772        15.5450          90.83          88.19           8.92
      6773        15.5470          90.12          89.16           8.92
      6774        15.5490          96.10          90.33           9.27
      6775        15.5510          84.03          91.76           8.63
      6776        15.5530          91.88          93.53           8.94
      6777        15.5550          92.62          95.77           9.02
      6778        15.5570          92.33          98.65           8.99
      6779        15.5590          93.41         102.44           9.06
      6780        15.5610         102.05         107.57           9.48
      6781        15.5630         105.25         114.90           9.72
      6782        15.5650         103.72         126.40           9.64
      6783        15.5670         110.14         147.01           9.89
      6784        15.5690         142.02         187.25          11.21
      6785        15.5710         166.13         263.45          12.14
      6786        15.5730         254.71         388.57          15.02
      6787        15.5750         467.18         549.82          20.45
      6788        15.5770         704.01         666.65          25.32
      6789        15.5790         818.85         625.20          26.75
      6790        15.5810         706.68         471.64          24.28
      6791        15.5830         450.86         322.91          19.29
      6792        15.5850         241.74         221.80          14.32
      6793        15.5870         181.38         164.87          12.45
      6794        15.5890         147.07         135.73          11.26
      6795        15.5910         127.16         120.38          10.56
      6796        15.5930         117.00         111.26          10.17
      6797        15.5950         105.00         105.16           9.59
      6798        15.5970         101.91         100.77           9.46
      6799        15.5990         106.48          97.48           9.71
      6800        15.6010          83.66          94.96           8.58
      6801        15.6030          83.61          92.99           8.48
      6802        15.6050          83.67          91.41           8.51
      6803        15.6070          85.55          90.14           8.65
      6804        15.6090          86.40          89.10           8.73
      6805        15.6110          84.22          88.24           8.67
      6806        15.6130          83.09          87.52           8.61
      6807        15.6150          85.24          86.91           8.64
      6808        15.6170          82.73          86.39           8.54
      6809        15.6190         101.63          85.94           9.52
      6810        15.6210         102.34          85.56           9.55
      6811        15.6230          88.55          85.22           8.87
      6812        15.6250          86.69          84.93           8.70
      6813        15.6270          86.46          84.68           8.71
      6814        15.6290          82.01          84.45           8.58
      6815        15.6310          94.50          84.25           9.14
      6816        15.6330          80.17          84.08           8.39
      6817        15.6350          70.79          83.92           7.90
      6818        15.6370          88.34          83.78           8.81
      6819        15.6390          95.35          83.65           9.18
      6820        15.6410          82.11          83.54           8.57
      6821        15.6430          87.53          83.44           8.76
      6822        15.6450          93.12          83.35           8.98
      6823        15.6470          78.21          83.26           8.22
      6824        15.6490          80.81          83.19           8.34
      6825        15.6510          80.63          83.12           8.45
      6826        15.6530          81.78          83.06           8.41
      6827        15.6550          67.78          83.00           7.71
      6828        15.6570          79.16          82.95           8.35
      6829        15.6590          77.01          82.91           8.23
      6830        15.6610          79.67          82.86           8.40
      6831        15.6630          88.59          82.83           8.86
      6832        15.6650          83.24          82.79           8.55
      6833        15.6670          81.39          82.76           8.47
      6834        15.6690          85.08          82.73           8.68
      6835        15.6710          76.47          82.71           8.23
      6836        15.6730          78.32          82.68           8.32
      6837        15.6750          85.54          82.66           8.73
      6838        15.6770          89.08          82.64           8.82
      6839        15.6790          67.37          82.63           7.68
      6840        15.6810          79.57          82.61           8.29
      6841        15.6830          73.16          82.60           8.06
      6842        15.6850          81.16          82.59           8.48
      6843        15.6870          86.54          82.57           8.77
      6844        15.6890          73.99          82.57           8.10
      6845        15.6910          76.20          82.56           8.18
      6846        15.6930          86.95          82.55           8.68
      6847        15.6950          70.28          82.54           7.84
      6848        15.6970          83.44          82.54           8.51
      6849        15.6990          88.68          82.53           8.78
      6850        15.7010          75.86          82.53           8.14
      6851        15.7030          84.87          82.53           8.62
      6852        15.7050          84.93          82.53           8.71
      6853        15.7070          88.37          82.52           8.92
      6854        15.7090          91.20          82.52           8.98
      6855        15.7110          87.46          82.52           8.75
      6856        15.7130          86.34          82.53           8.67
      6857        15.7150          80.66          82.53           8.48
      6858        15.7170          74.46          82.53           8.19
      6859        15.7190          80.23          82.53           8.37
      6860        15.7210          81.09          82.53           8.42
      6861        15.7230          79.00          82.54           8.39
      6862        15.7250          82.58          82.54           8.58
      6863        15.7270          79.86          82.54           8.44
      6864        15.7290          94.69          82.55           9.07
      6865        15.7310          93.32          82.55           9.05
      6866        15.7330          81.95          82.56           8.54
      6867        15.7350          72.38          82.56           8.05
      6868        15.7370          83.90          82.57           8.57
      6869        15.7390          79.56          82.57           8.36
      6870        15.7410          75.53          82.58           8.17
      6871        15.7430          85.95          82.59           8.63
      6872        15.7450          85.55          82.59           8.64
      6873        15.7470          80.40          82.60           8.39
      6874        15.7490          76.27          82.61           8.15
      6875        15.7510          89.66          82.62           8.84
      6876        15.7530          84.66          82.62           8.73
      6877        15.7550          90.73          82.63           8.97
      6878        15.7570          79.25          82.64           8.36
      6879        15.7590          86.31          82.65           8.67
      6880        15.7610          81.74          82.65           8.47
      6881        15.7630          80.45          82.66           8.43
      6882        15.7650          82.07          82.45           8.49
      6883        15.7670          80.86          82.46           8.41
      6884        15.7690          84.87          82.48           8.68
      6885        15.7710          86.38          82.49           8.80
      6886        15.7730         101.56          82.50           9.45
      6887        15.7750          86.57          82.52           8.78
      6888        15.7770          88.77          82.53           8.82
      6889        15.7790          80.86          82.54           8.41
      6890        15.7810          72.49          82.56           8.03
      6891        15.7830          77.47          82.57           8.26
      6892        15.7850          88.51          82.58           8.82
      6893        15.7870          93.25          82.60           9.02
      6894        15.7890          82.42          82.61           8.48
      6895        15.7910          75.65          82.62           8.19
      6896        15.7930          83.86          82.64           8.58
      6897        15.7950          90.63          82.65           8.91
      6898        15.7970          88.38          82.66           8.89
      6899        15.7990          86.67          82.68           8.77
      6900        15.8010          74.10          82.69           8.14
      6901        15.8030          82.56          82.70           8.58
      6902        15.8050          82.01          82.71           8.59
      6903        15.8070          82.36          82.73           8.50
      6904        15.8090          84.57          82.74           8.60
      6905        15.8110          92.42          82.75           8.97
      6906        15.8130          93.69          82.77           9.01
      6907        15.8150          82.70          82.78           8.60
      6908        15.8170          83.22          82.79           8.56
      6909        15.8190          92.58          82.81           8.98
      6910        15.8210          90.60          82.82           8.94
      6911        15.8230          96.98          82.83           9.25
      6912        15.8250          87.34          82.85           8.82
      6913        15.8270          73.99          82.86           8.11
      6914        15.8290          81.80          82.87           8.50
      6915        15.8310          95.94          82.89           9.18
      6916        15.8330          97.79          82.90           9.21
      6917        15.8350          83.46          82.91           8.63
      6918        15.8370          88.41          82.92           8.83
      6919        15.8390          85.38          83.12           8.69
      6920        15.8410          87.65          83.14           8.78
      6921        15.8430          77.96          83.16           8.29
      6922        15.8450          92.08          83.17           8.99
      6923        15.8470          99.07          83.19           9.37
      6924        15.8490          93.05          83.21           9.11
      6925        15.8510          80.92          83.23           8.41
      6926        15.8530          68.20          83.24           7.70
      6927        15.8550          88.06          83.26           8.70
      6928        15.8570          76.92          83.28           8.22
      6929        15.8590          66.93          83.30           7.71
      6930        15.8610          91.34          83.32           8.90
      6931        15.8630          73.87          83.33           8.10
      6932        15.8650          74.35          83.35           8.07
      6933        15.8670          76.24          83.37           8.17
      6934        15.8690          90.93          83.39           8.90
      6935        15.8710          93.36          83.41           9.03
      6936        15.8730          85.09          83.43           8.67
      6937        15.8750          86.54          83.45           8.72
      6938        15.8770          81.10          83.47           8.40
      6939        15.8790          87.56          83.49           8.70
      6940        15.8810          86.10          83.51           8.68
      6941        15.8830          77.98          83.53           8.22
      6942        15.8850          79.50          83.55           8.29
      6943        15.8870          82.49          83.57           8.51
      6944        15.8890          81.31          83.60           8.47
      6945        15.8910          88.00          83.62           8.79
      6946        15.8930          82.29          83.64           8.54
      6947        15.8950          88.81          83.66           8.85
      6948        15.8970          89.32          83.69           8.87
      6949        15.8990          89.95          83.71           8.90
      6950        15.9010          91.05          83.74           8.96
      6951        15.9030          82.12          83.76           8.50
      6952        15.9050          85.19          83.79           8.60
      6953        15.9070          85.93          83.81           8.67
      6954        15.9090          89.44          83.84           8.83
      6955        15.9110          81.39          83.87           8.51
      6956        15.9130          89.96          83.90           8.85
      6957        15.9150          75.29          83.93           8.10
      6958        15.9170          82.82          83.96           8.53
      6959        15.9190          94.03          83.99           9.11
      6960        15.9210          96.93          84.02           9.19
      6961        15.9230          80.83          84.05           8.46
      6962        15.9250          73.85          84.09           8.14
      6963        15.9270          85.93          84.12           8.74
      6964        15.9290          87.68          84.16           8.86
      6965        15.9310          87.94          84.20           8.86
      6966        15.9330          82.86          84.24           8.52
      6967        15.9350          75.85          84.28           8.17
      6968        15.9370          94.30          84.32           9.11
      6969        15.9390          86.40          84.37           8.72
      6970        15.9410          86.25          84.42           8.68
      6971        15.9430          86.25          84.47           8.64
      6972        15.9450          83.25          84.52           8.52
      6973        15.9470          86.81          84.57           8.69
      6974        15.9490          86.43          84.63           8.71
      6975        15.9510         113.03          84.69           9.89
      6976        15.9530          89.09          84.76           8.88
      6977        15.9550          88.11          84.83           8.80
      6978        15.9570          95.70          84.90           9.17
      6979        15.9590          90.42          84.98           9.02
      6980        15.9610          94.50          85.07           9.13
      6981        15.9630          89.69          85.16           8.89
      6982        15.9650          96.57          85.26           9.24
      6983        15.9670          87.20          85.37           8.79
      6984        15.9690          87.88          85.48           8.77
      6985        15.9710          91.04          85.61           8.93
      6986        15.9730          88.96          85.75           8.85
      6987        15.9750          78.12          85.90           8.38
      6988        15.9770          83.60          86.06           8.59
      6989        15.9790          88.56          86.25           8.81
      6990        15.9810          92.79          86.45           9.05
      6991        15.9830          95.18          86.68           9.11
      6992        15.9850          92.23          86.94           8.95
      6993        15.9870          89.22          87.23           8.86
      6994        15.9890          90.66          87.55           8.95
      6995        15.9910         101.00          87.93           9.38
      6996        15.9930          84.93          88.36           8.68
      6997        15.9950          95.59          88.85           9.17
      6998        15.9970          98.68          89.44           9.33
      6999        15.9990         101.11          90.12          14.09
      7000        16.0010         106.43          90.93           9.64
      7001        16.0030          99.63          91.91           9.35
      7002        16.0050         102.32          93.11           9.49
      7003        16.0070         103.49          94.58           9.54
      7004        16.0090         102.77          96.43           9.53
      7005        16.0110         105.14          98.79           9.65
      7006        16.0130         105.79         101.87           9.66
      7007        16.0150         101.83         106.02           9.42
      7008        16.0170          98.08         111.89           9.25
      7009        16.0190         119.75         120.95          10.21
      7010        16.0210         132.74         136.90          10.74
      7011        16.0230         165.63         167.46          11.92
      7012        16.0250         249.82         224.85          14.50
      7013        16.0270         402.96         320.13          18.34
      7014        16.0290         634.14         448.58          23.08
      7015        16.0310         774.94         561.48          25.98
      7016        16.0330         640.07         565.44          24.03
      7017        16.0350         414.49         456.12          19.19
      7018        16.0370         232.21         326.89          14.31
      7019        16.0390         171.86         229.26          12.28
      7020        16.0410         138.01         169.94          10.90
      7021        16.0430         115.86         138.26          10.04
      7022        16.0450         108.52         121.77           9.83
      7023        16.0470         102.97         112.46           9.53
      7024        16.0490         101.06         106.49           9.43
      7025        16.0510          98.38         102.30           9.35
      7026        16.0530          93.58          99.19           9.12
      7027        16.0550          95.57          96.81           9.16
      7028        16.0570          98.75          94.96           9.33
      7029        16.0590          95.74          93.50           9.24
      7030        16.0610         110.31          92.31           9.86
      7031        16.0630          99.17          91.34           9.39
      7032        16.0650          94.72          90.55           9.11
      7033        16.0670          91.60          89.88           8.99
      7034        16.0690          87.09          89.31           8.77
      7035        16.0710          82.34          88.84           8.51
      7036        16.0730          84.86          88.43           8.56
      7037        16.0750          89.31          88.07           8.77
      7038        16.0770          96.68          87.77           9.23
      7039        16.0790          90.35          87.50           8.95
      7040        16.0810          81.51          87.26           8.43
      7041        16.0830          76.58          87.06           8.18
      7042        16.0850          90.56          86.87           8.84
      7043        16.0870          88.62          86.71           8.76
      7044        16.0890          78.62          86.57           8.32
      7045        16.0910          87.95          86.44           8.77
      7046        16.0930          93.24          86.32           9.07
      7047        16.0950          88.85          86.22           8.79
      7048        16.0970          88.61          86.13           8.78
      7049        16.0990          98.14          86.04           9.32
      7050        16.1010         107.08          85.97           9.64
      7051        16.1030          92.39          85.90           8.99
      7052        16.1050          91.07          85.83           8.94
      7053        16.1070          86.12          85.78           8.70
      7054        16.1090          78.41          85.73           8.33
      7055        16.1110          87.92          85.68           8.79
      7056        16.1130          91.33          85.64           8.90
      7057        16.1150          87.37          85.60           8.80
      7058        16.1170          88.82          85.56           8.82
      7059        16.1190          84.06          85.53           8.52
      7060        16.1210          83.61          85.50           8.54
      7061        16.1230          78.93          85.47           8.29
      7062        16.1250          88.14          85.45           8.71
      7063        16.1270          84.43          85.43           8.67
      7064        16.1290          86.02          85.40           8.75
      7065        16.1310          91.75          85.39           8.99
      7066        16.1330          91.14          85.37           8.92
      7067        16.1350          89.20          85.35           8.84
      7068        16.1370          85.49          85.34           8.71
      7069        16.1390          75.04          85.33           8.14
      7070        16.1410          79.86          85.32           8.39
      7071        16.1430         101.49          85.31           9.40
      7072        16.1450          94.16          85.30           9.07
      7073        16.1470          88.98          85.29           8.83
      7074        16.1490          90.58          85.28           8.93
      7075        16.1510          93.04          85.28           9.09
      7076        16.1530          96.84          85.27           9.25
      7077        16.1550          85.09          85.27           8.67
      7078        16.1570          77.99          85.26           8.31
      7079        16.1590          83.20          85.26           8.56
      7080        16.1610          81.91          85.25           8.45
      7081        16.1630          83.47          85.25           8.51
      7082        16.1650          91.37          85.25           8.93
      7083        16.1670          87.70          85.25           8.77
      7084        16.1690          82.17          85.25           8.49
      7085        16.1710          87.93          85.25           8.74
      7086        16.1730          82.87          85.25           8.52
      7087        16.1750          83.10          85.25           8.59
      7088        16.1770          91.19          85.25           8.89
      7089        16.1790          81.93          85.25           8.47
      7090        16.1810          79.42          85.25           8.43
      7091        16.1830          91.69          85.25           8.97
      7092        16.1850          82.36          85.26           8.54
      7093        16.1870          74.96          85.26           8.13
      7094        16.1890          67.91          85.26           7.76
      7095        16.1910          76.00          85.27           8.20
      7096        16.1930          91.82          85.27           8.95
      7097        16.1950          85.30          85.27           8.62
      7098        16.1970          80.17          85.28           8.38
      7099        16.1990          75.58          85.28           8.10
      7100        16.2010          72.83          85.28           7.97
      7101        16.2030          82.35          85.29           8.45
      7102        16.2050          66.64          85.29           7.66
      7103        16.2070          75.10          85.30           8.11
      7104        16.2090          78.95          85.30           8.34
      7105        16.2110          83.41          85.31           8.54
      7106        16.2130          92.36          85.31           8.93
      7107        16.2150          80.69          85.32           8.43
      7108        16.2170          85.73          85.32           8.72
      7109        16.2190          87.86          85.33           8.83
      7110        16.2210          88.50          85.33           8.74
      7111        16.2230          77.18          85.34           8.24
      7112        16.2250          81.40          85.34           8.44
      7113        16.2270          82.93          85.17           8.52
      7114        16.2290         100.95          85.18           9.44
      7115        16.2310          80.71          85.19           8.52
      7116        16.2330          87.42          85.20           8.79
      7117        16.2350          90.03          85.21           8.87
      7118        16.2370          84.70          85.22           8.63
      7119        16.2390          80.74          85.23           8.43
      7120        16.2410          84.14          85.23           8.58
      7121        16.2430          95.27          85.24           9.06
      7122        16.2450          79.34          85.25           8.37
      7123        16.2470          92.35          85.26           9.04
      7124        16.2490          90.50          85.27           8.96
      7125        16.2510          89.34          85.28           8.88
      7126        16.2530          88.21          85.29           8.80
      7127        16.2550          94.99          85.30           9.04
      7128        16.2570          86.92          85.31           8.72
      7129        16.2590          86.27          85.32           8.74
      7130        16.2610          83.11          85.33           8.57
      7131        16.2630          70.60          85.34           7.88
      7132        16.2650          82.37          85.35           8.44
      7133        16.2670          81.21          85.35           8.43
      7134        16.2690          77.73          85.36           8.29
      7135        16.2710         101.78          85.37           9.42
      7136        16.2730          86.66          85.38           8.71
      7137        16.2750          84.25          85.40           8.62
      7138        16.2770          87.11          85.41           8.81
      7139        16.2790          87.71          85.42           8.82
      7140        16.2810          91.63          85.43           8.99
      7141        16.2830          78.39          85.44           8.29
      7142        16.2850          83.41          85.45           8.54
      7143        16.2870          87.23          85.46           8.78
      7144        16.2890          72.40          85.46           8.00
      7145        16.2910          89.26          85.47           8.80
      7146        16.2930          97.11          85.48           9.17
      7147        16.2950          92.12          85.49           9.04
      7148        16.2970          89.08          85.50           8.91
      7149        16.2990          89.69          85.51           8.86
      7150        16.3010          83.33          85.52           8.59
      7151        16.3030          92.23          85.53           8.96
      7152        16.3050          83.12          85.54           8.52
      7153        16.3070          84.57          85.55           8.59
      7154        16.3090          84.26          85.55           8.52
      7155        16.3110          75.34          85.56           8.08
      7156        16.3130          72.11          85.57           7.94
      7157        16.3150          88.14          85.58           8.77
      7158        16.3170          95.64          85.59           9.15
      7159        16.3190          88.67          85.60           8.83
      7160        16.3210          84.73          85.61           8.62
      7161        16.3230          79.10          85.62           8.32
      7162        16.3250          83.83          85.62           8.58
      7163        16.3270          86.33          85.63           8.75
      7164        16.3290          87.35          85.64           8.79
      7165        16.3310          86.38          85.65           8.71
      7166        16.3330          93.34          85.66           9.04
      7167        16.3350          81.32          85.67           8.50
      7168        16.3370          80.06          85.68           8.33
      7169        16.3390          73.09          85.69           8.01
      7170        16.3410          84.43          85.70           8.66
      7171        16.3430          99.89          85.70           9.35
      7172        16.3450          76.52          85.71           8.23
      7173        16.3470          78.32          85.72           8.31
      7174        16.3490          93.38          85.73           9.05
      7175        16.3510          96.76          85.74           9.17
      7176        16.3530          82.98          85.75           8.52
      7177        16.3550          88.58          85.76           8.79
      7178        16.3570          91.77          85.77           8.98
      7179        16.3590          80.74          85.78           8.45
      7180        16.3610          77.73          85.78           8.34
      7181        16.3630          96.13          85.79           9.19
      7182        16.3650          86.21          85.80           8.66
      7183        16.3670          83.30          85.81           8.50
      7184        16.3690          75.63          85.82           8.07
      7185        16.3710          78.42          85.83           8.23
      7186        16.3730          94.81          85.84           9.07
      7187        16.3750          96.84          85.85           9.17
      7188        16.3770          87.51          85.86           8.77
      7189        16.3790          82.09          85.87           8.48
      7190        16.3810          78.78          85.88           8.34
      7191        16.3830          87.64          85.89           8.76
      7192        16.3850          91.16          85.90           8.94
      7193        16.3870          99.06          85.91           9.34
      7194        16.3890          88.20          85.92           8.84
      7195        16.3910          92.28          85.93           8.98
      7196        16.3930          76.53          85.94           8.28
      7197        16.3950          87.77          85.95           8.77
      7198        16.3970          82.85          85.96           8.55
      7199        16.3990          84.60          85.97           8.62
      7200        16.4010          84.74          85.98           8.67
      7201        16.4030          86.36          85.99           8.77
      7202        16.4050          92.27          86.00           8.97
      7203        16.4070          73.94          86.02           8.10
      7204        16.4090          73.18          86.03           8.02
      7205        16.4110          77.56          86.04           8.15
      7206        16.4130          72.98          86.06           7.98
      7207        16.4150          90.56          86.07           8.94
      7208        16.4170          94.42          86.09           9.12
      7209        16.4190          91.80          86.10           8.95
      7210        16.4210          80.74          86.12           8.37
      7211        16.4230          86.84          86.14           8.67
      7212        16.4250          76.71          86.16           8.24
      7213        16.4270          92.95          86.18           8.99
      7214        16.4290          84.26          86.20           8.62
      7215        16.4310          93.85          86.23           9.01
      7216        16.4330          81.33          86.26           8.49
      7217        16.4350          87.47          86.29           8.76
      7218        16.4370          91.18          86.32           8.98
      7219        16.4390          98.85          86.36           9.33
      7220        16.4410          81.76          86.41           8.48
      7221        16.4430          78.31          86.46           8.28
      7222        16.4450          93.07          86.53           8.99
      7223        16.4470          96.31          86.60           9.15
      7224        16.4490          78.09          86.70           8.33
      7225        16.4510          77.74          86.81           8.25
      7226        16.4530          86.37          86.95           8.61
      7227        16.4550         103.77          87.14           9.43
      7228        16.4570          89.97          87.38           8.93
      7229        16.4590          93.32          87.73           9.01
      7230        16.4610          82.13          88.25           8.46
      7231        16.4630          91.94          89.17           8.87
      7232        16.4650          99.01          90.89           9.25
      7233        16.4670         101.41          94.08           9.43
      7234        16.4690         105.68          99.34           9.53
      7235        16.4710         119.63         106.46          10.12
      7236        16.4730         133.30         113.19          10.85
      7237        16.4750         122.95         114.58          10.40
      7238        16.4770         112.55         109.24           9.90
      7239        16.4790          99.87         101.83           9.39
      7240        16.4810          90.52          95.81           8.86
      7241        16.4830          90.23          91.92           8.80
      7242        16.4850          92.53          89.75           9.00
      7243        16.4870          90.59          88.61           8.84
      7244        16.4890          78.29          87.98           8.24
      7245        16.4910         101.91          87.60           9.40
      7246        16.4930          93.28          87.34           9.03
      7247        16.4950          81.13          87.14           8.43
      7248        16.4970          83.66          87.00           8.54
      7249        16.4990          94.95          86.89           9.05
      7250        16.5010          80.46          86.80           8.46
      7251        16.5030          97.63          86.73           9.23
      7252        16.5050          84.05          86.68           8.64
      7253        16.5070          84.97          86.63           8.68
      7254        16.5090          93.49          86.60           9.07
      7255        16.5110          87.72          86.57           8.77
      7256        16.5130          79.99          86.54           8.40
      7257        16.5150          86.37          86.52           8.71
      7258        16.5170          75.60          86.50           8.18
      7259        16.5190          79.52          86.49           8.31
      7260        16.5210          83.92          86.48           8.57
      7261        16.5230          93.55          86.47           9.07
      7262        16.5250          87.48          86.46           8.66
      7263        16.5270          82.89          86.45           8.47
      7264        16.5290          98.07          86.45           9.27
      7265        16.5310          90.22          86.45           8.91
      7266        16.5330          87.00          86.44           8.73
      7267        16.5350          78.53          86.44           8.28
      7268        16.5370          76.35          86.44           8.20
      7269        16.5390          93.86          86.44           9.11
      7270        16.5410          74.55          86.44           8.09
      7271        16.5430          75.49          86.44           8.04
      7272        16.5450          81.50          86.44           8.39
      7273        16.5470          84.75          86.44           8.59
      7274        16.5490          80.76          86.44           8.39
      7275        16.5510          87.30          86.44           8.73
      7276        16.5530          98.46          86.44           9.30
      7277        16.5550          97.72          86.44           9.23
      7278        16.5570          98.99          86.44           9.23
      7279        16.5590          84.43          86.45           8.63
      7280        16.5610          77.16          86.45           8.27
      7281        16.5630          87.34          86.45           8.74
      7282        16.5650          87.91          86.45           8.76
      7283        16.5670          78.88          86.46           8.35
      7284        16.5690          84.66          86.46           8.62
      7285        16.5710          92.82          86.46           8.96
      7286        16.5730          94.31          86.47           9.13
      7287        16.5750          99.29          86.47           9.38
      7288        16.5770          94.09          86.47           9.07
      7289        16.5790          95.15          86.48           9.12
      7290        16.5810          89.09          86.48           8.82
      7291        16.5830          79.90          86.48           8.30
      7292        16.5850          81.73          86.49           8.42
      7293        16.5870          84.12          86.49           8.56
      7294        16.5890          88.60          86.49           8.81
      7295        16.5910          89.51          86.50           8.86
      7296        16.5930          81.58          86.50           8.40
      7297        16.5950          86.31          86.50           8.59
      7298        16.5970          85.67          86.51           8.63
      7299        16.5990          83.97          86.51           8.57
      7300        16.6010          84.11          86.51           8.55
      7301        16.6030          84.70          86.52           8.64
      7302        16.6050          85.07          86.52           8.66
      7303        16.6070          93.39          86.52           9.06
      7304        16.6090          78.84          86.53           8.32
      7305        16.6110          90.61          86.53           8.82
      7306        16.6130          84.16          86.53           8.63
      7307        16.6150          82.08          86.54           8.50
      7308        16.6170          86.97          86.54           8.75
      7309        16.6190          86.94          86.55           8.74
      7310        16.6210          90.41          86.55           8.89
      7311        16.6230          89.02          86.55           8.85
      7312        16.6250          87.21          86.56           8.74
      7313        16.6270          79.80          86.56           8.38
      7314        16.6290          79.30          86.56           8.37
      7315        16.6310          92.59          86.57           9.04
      7316        16.6330          93.55          86.57           9.12
      7317        16.6350          93.88          86.57           9.08
      7318        16.6370         105.47          86.58           9.60
      7319        16.6390         115.26          86.58          10.03
      7320        16.6410          93.90          86.58           9.02
      7321        16.6430          76.88          86.59           8.18
      7322        16.6450          86.01          86.59           8.61
      7323        16.6470          91.48          86.59           8.93
      7324        16.6490          81.99          86.60           8.51
      7325        16.6510          84.51          86.60           8.54
      7326        16.6530          92.84          86.60           8.98
      7327        16.6550         101.16          86.61           9.50
      7328        16.6570         100.22          86.61           9.37
      7329        16.6590          81.36          86.61           8.46
      7330        16.6610          80.06          86.62           8.31
      7331        16.6630          77.44          86.62           8.23
      7332        16.6650          84.34          86.62           8.60
      7333        16.6670          82.89          86.63           8.53
      7334        16.6690         101.28          86.63           9.41
      7335        16.6710          87.75          86.63           8.72
      7336        16.6730          83.80          86.64           8.49
      7337        16.6750          84.05          86.63           8.56
      7338        16.6770          89.23          86.63           8.85
      7339        16.6790          97.83          86.64           9.27
      7340        16.6810          99.97          86.64           9.22
      7341        16.6830          80.67          86.64           8.36
      7342        16.6850          95.45          86.64           9.10
      7343        16.6870          99.13          86.65           9.26
      7344        16.6890          89.48          86.65           8.86
      7345        16.6910          91.93          86.65           8.91
      7346        16.6930          87.66          86.66           8.73
      7347        16.6950          90.38          86.66           8.88
      7348        16.6970          78.92          86.66           8.28
      7349        16.6990          67.90          86.67           7.74
      7350        16.7010          81.39          86.80           8.39
      7351        16.7030          84.35          86.81           8.57
      7352        16.7050          86.81          86.81           8.78
      7353        16.7070          90.95          86.82           8.97
      7354        16.7090          92.30          86.83           8.97
      7355        16.7110          83.23          86.83           8.57
      7356        16.7130          84.38          86.84           8.61
      7357        16.7150          91.92          86.84           8.98
      7358        16.7170          94.10          86.85           9.07
      7359        16.7190          94.91          86.86           9.05
      7360        16.7210          95.02          86.86           9.04
      7361        16.7230          91.91          86.87           8.94
      7362        16.7250          82.59          86.87           8.57
      7363        16.7270          95.80          86.88           9.17
      7364        16.7290          97.52          86.89           9.26
      7365        16.7310          89.88          86.89           8.84
      7366        16.7330          97.65          86.90           9.19
      7367        16.7350         101.65          86.91           9.38
      7368        16.7370          87.16          86.91           8.69
      7369        16.7390          77.14          86.92           8.26
      7370        16.7410          93.32          86.93           8.99
      7371        16.7430          89.73          86.94           8.87
      7372        16.7450          93.46          86.94           9.10
      7373        16.7470          90.38          86.95           8.92
      7374        16.7490          87.11          86.96           8.70
      7375        16.7510          73.58          86.97           7.98
      7376        16.7530          81.80          86.98           8.42
      7377        16.7550          90.14          86.98           8.91
      7378        16.7570          82.51          86.99           8.56
      7379        16.7590          86.29          87.00           8.73
      7380        16.7610         100.91          87.01           9.35
      7381        16.7630          91.07          87.02           8.94
      7382        16.7650          94.85          87.03           9.08
      7383        16.7670          81.40          87.04           8.45
      7384        16.7690          91.62          87.05           8.92
      7385        16.7710         107.71          87.06           9.66
      7386        16.7730          86.02          87.07           8.71
      7387        16.7750          79.36          87.09           8.28
      7388        16.7770          79.39          87.10           8.30
      7389        16.7790          97.84          87.11           9.14
      7390        16.7810          83.33          87.12           8.53
      7391        16.7830          91.94          87.14           8.91
      7392        16.7850          80.42          87.15           8.36
      7393        16.7870          87.30          87.17           8.70
      7394        16.7890          82.27          87.18           8.48
      7395        16.7910          92.25          87.20           8.95
      7396        16.7930          85.38          87.22           8.56
      7397        16.7950          83.78          87.23           8.49
      7398        16.7970          80.05          87.25           8.41
      7399        16.7990          95.00          87.27           9.11
      7400        16.8010          84.94          87.29           8.67
      7401        16.8030         104.75          87.31           9.55
      7402        16.8050          98.32          87.34           9.33
      7403        16.8070          76.72          87.36           8.22
      7404        16.8090          73.15          87.39           7.99
      7405        16.8110          79.07          87.41           8.26
      7406        16.8130          82.16          87.44           8.43
      7407        16.8150          83.20          87.47           8.58
      7408        16.8170          77.45          87.50           8.33
      7409        16.8190          83.38          87.54           8.50
      7410        16.8210          76.79          87.58           8.21
      7411        16.8230          90.64          87.62           8.92
      7412        16.8250          94.38          87.66           9.08
      7413        16.8270          93.02          87.70           9.00
      7414        16.8290          91.53          87.75           8.93
      7415        16.8310          94.71          87.81           9.08
      7416        16.8330          93.23          87.86           9.02
      7417        16.8350         106.36          87.92           9.55
      7418        16.8370          87.48          87.99           8.78
      7419        16.8390         105.78          88.07           9.57
      7420        16.8410          96.62          88.15           9.10
      7421        16.8430          85.38          88.23           8.58
      7422        16.8450          92.24          88.33           8.97
      7423        16.8470          89.01          88.44           8.81
      7424        16.8490          94.24          88.55           9.05
      7425        16.8510          95.94          88.68           9.09
      7426        16.8530          83.22          88.83           8.55
      7427        16.8550          96.44          88.99           9.25
      7428        16.8570         100.31          89.18           9.37
      7429        16.8590         103.25          89.38           9.54
      7430        16.8610         107.11          89.62           9.61
      7431        16.8630         106.56          89.88           9.59
      7432        16.8650         104.98          90.19           9.57
      7433        16.8670          96.11          90.55           9.13
      7434        16.8690          87.04          90.96           8.73
      7435        16.8710          95.26          91.45           9.13
      7436        16.8730         112.42          92.02           9.94
      7437        16.8750         113.44          92.71           9.97
      7438        16.8770          99.72          93.54           9.28
      7439        16.8790          89.69          94.56           8.83
      7440        16.8810          97.19          95.83           9.16
      7441        16.8830          91.89          97.43           8.97
      7442        16.8850          93.53          99.48           9.05
      7443        16.8870          95.68         102.19           9.07
      7444        16.8890         109.47         105.91           9.70
      7445        16.8910         114.50         111.44           9.99
      7446        16.8930         115.07         120.64           9.97
      7447        16.8950         118.90         137.48          10.17
      7448        16.8970         150.56         168.91          11.34
      7449        16.8990         157.83         222.96          11.57
      7450        16.9010         238.79         302.66          14.03
      7451        16.9030         371.87         394.72          17.40
      7452        16.9050         486.64         453.44          20.02
      7453        16.9070         505.05         427.64          20.86
      7454        16.9090         488.70         342.12          21.16
      7455        16.9110         358.83         253.98          18.16
      7456        16.9130         235.74         188.75          14.61
      7457        16.9150         172.08         148.64          12.45
      7458        16.9170         149.76         126.54          11.51
      7459        16.9190         122.07         114.74          10.30
      7460        16.9210         109.85         107.97           9.80
      7461        16.9230         108.13         103.62           9.78
      7462        16.9250         105.74         100.54           9.61
      7463        16.9270          98.81          98.23           9.34
      7464        16.9290         115.23          96.46          10.03
      7465        16.9310         106.42          95.07           9.66
      7466        16.9330          96.97          93.95           9.24
      7467        16.9350          87.21          93.05           8.82
      7468        16.9370          98.02          92.30           9.26
      7469        16.9390          96.54          91.68           9.18
      7470        16.9410          95.91          91.16           9.18
      7471        16.9430         101.83          90.72           9.47
      7472        16.9450          92.52          90.34           8.97
      7473        16.9470          92.62          90.01           8.93
      7474        16.9490          91.49          89.73           8.95
      7475        16.9510         106.88          89.48           9.64
      7476        16.9530         110.26          89.26           9.87
      7477        16.9550         109.44          89.07           9.76
      7478        16.9570          89.71          88.90           8.79
      7479        16.9590          80.67          88.74           8.41
      7480        16.9610          84.05          88.61           8.55
      7481        16.9630          85.32          88.48           8.63
      7482        16.9650         100.86          88.37           9.46
      7483        16.9670         110.98          88.27           9.88
      7484        16.9690          99.90          88.18           9.29
      7485        16.9710          82.38          88.10           8.51
      7486        16.9730          82.12          88.02           8.46
      7487        16.9750          92.07          87.95           8.91
      7488        16.9770          87.80          87.89           8.76
      7489        16.9790          84.09          87.83           8.53
      7490        16.9810          90.98          87.77           8.89
      7491        16.9830          99.13          87.72           9.30
      7492        16.9850          89.26          87.67           8.81
      7493        16.9870          66.19          87.63           7.66
      7494        16.9890          87.01          87.59           8.70
      7495        16.9910          98.87          87.55           9.33
      7496        16.9930          84.65          87.52           8.59
      7497        16.9950          98.10          87.48           9.14
      7498        16.9970          95.71          87.45           9.08
      7499        16.9990          94.82          87.42           9.09
      7500        17.0010         107.50          87.39           9.66
      7501        17.0030          94.61          87.37           9.15
      7502        17.0050          80.58          87.34           8.50
      7503        17.0070         103.95          87.32           9.54
      7504        17.0090          96.01          87.30           9.26
      7505        17.0110          94.49          87.28           9.09
      7506        17.0130          87.49          87.26           8.78
      7507        17.0150          91.83          87.24           9.02
      7508        17.0170          84.86          87.22           8.66
      7509        17.0190          79.73          87.20           8.32
      7510        17.0210          78.30          87.19           8.25
      7511        17.0230          81.79          87.17           8.49
      7512        17.0250          80.43          87.16           8.36
      7513        17.0270          99.48          87.14           9.24
      7514        17.0290          90.69          87.13           8.85
      7515        17.0310          85.09          87.11           8.54
      7516        17.0330          87.24          87.10           8.69
      7517        17.0350          87.80          87.09           8.74
      7518        17.0370          91.56          87.08           8.92
      7519        17.0390          88.65          87.07           8.76
      7520        17.0410          89.16          87.06           8.75
      7521        17.0430          82.89          87.04           8.51
      7522        17.0450          89.45          87.03           8.83
      7523        17.0470          96.13          87.02           9.15
      7524        17.0490          86.02          87.02           8.77
      7525        17.0510          92.75          87.01           9.04
      7526        17.0530         101.34          87.00           9.33
      7527        17.0550          87.04          86.99           8.66
      7528        17.0570          76.42          86.98           8.15
      7529        17.0590          75.52          86.97           8.12
      7530        17.0610          80.15          86.96           8.36
      7531        17.0630          95.12          86.96           9.04
      7532        17.0650          75.78          86.95           8.14
      7533        17.0670          76.06          86.94           8.17
      7534        17.0690          91.54          86.93           8.93
      7535        17.0710          81.74          86.93           8.45
      7536        17.0730          76.51          86.92           8.15
      7537        17.0750          81.58          86.91           8.43
      7538        17.0770          99.27          86.90           9.31
      7539        17.0790          91.17          86.90           8.88
      7540        17.0810          79.15          86.89           8.33
      7541        17.0830          80.45          86.89           8.44
      7542        17.0850          81.14          86.88           8.38
      7543        17.0870          88.83          86.87           8.74
      7544        17.0890          91.50          86.87           8.99
      7545        17.0910          94.04          86.86           9.02
      7546        17.0930          96.35          86.85           9.10
      7547        17.0950          87.38          86.85           8.72
      7548        17.0970          83.41          86.84           8.52
      7549        17.0990          81.00          86.84           8.43
      7550        17.1010          86.44          86.83           8.69
      7551        17.1030          82.49          86.83           8.51
      7552        17.1050          88.06          86.82           8.69
      7553        17.1070          93.54          86.82           8.91
      7554        17.1090          72.90          86.81           8.02
      7555        17.1110          85.39          86.81           8.67
      7556        17.1130          81.29          86.67           8.44
      7557        17.1150          88.33          86.79           8.71
      7558        17.1170          95.29          86.79           9.08
      7559        17.1190          98.69          86.79           9.16
      7560        17.1210          77.75          86.79           8.15
      7561        17.1230          87.31          86.79           8.69
      7562        17.1250          93.69          86.79           9.02
      7563        17.1270          91.10          86.79           8.91
      7564        17.1290          90.86          86.79           8.98
      7565        17.1310          95.95          86.79           9.19
      7566        17.1330          92.39          86.79           9.00
      7567        17.1350          93.89          86.79           9.04
      7568        17.1370          91.67          86.79           8.92
      7569        17.1390         100.57          86.79           9.33
      7570        17.1410          89.38          86.79           8.84
      7571        17.1430          87.92          86.79           8.80
      7572        17.1450         101.72          86.79           9.44
      7573        17.1470         100.03          86.79           9.30
      7574        17.1490          96.40          86.79           9.12
      7575        17.1510          91.38          86.80           8.93
      7576        17.1530          78.34          86.80           8.21
      7577        17.1550          76.04          86.80           8.12
      7578        17.1570          83.56          86.80           8.60
      7579        17.1590          90.57          86.80           8.89
      7580        17.1610          81.13          86.80           8.44
      7581        17.1630          83.91          86.80           8.55
      7582        17.1650          93.10          86.81           9.03
      7583        17.1670          95.07          86.81           9.17
      7584        17.1690          76.15          86.81           8.19
      7585        17.1710          82.66          86.81           8.39
      7586        17.1730          74.47          86.82           7.99
      7587        17.1750          93.06          86.82           8.93
      7588        17.1770          94.81          86.82           9.14
      7589        17.1790          91.79          86.83           9.03
      7590        17.1810          93.90          86.83           9.03
      7591        17.1830          75.39          86.83           8.15
      7592        17.1850          82.66          86.84           8.46
      7593        17.1870          89.44          86.84           8.79
      7594        17.1890          93.11          86.85           9.01
      7595        17.1910          91.41          86.85           8.87
      7596        17.1930          88.84          86.86           8.76
      7597        17.1950          94.72          86.86           9.11
      7598        17.1970          95.76          86.87           9.19
      7599        17.1990          92.52          86.88           9.00
      7600        17.2010          86.68          86.89           8.65
      7601        17.2030          83.03          86.89           8.46
      7602        17.2050          93.56          86.90           8.98
      7603        17.2070          97.39          86.91           9.14
      7604        17.2090          85.39          86.92           8.62
      7605        17.2110          86.39          86.93           8.72
      7606        17.2130          84.05          86.94           8.59
      7607        17.2150          76.95          86.95           8.23
      7608        17.2170          95.09          86.97           9.08
      7609        17.2190          95.19          86.98           9.03
      7610        17.2210          79.01          87.00           8.29
      7611        17.2230          90.56          87.01           8.87
      7612        17.2250          84.27          87.03           8.62
      7613        17.2270          73.72          87.05           8.01
      7614        17.2290          77.69          87.07           8.18
      7615        17.2310          90.36          87.09           8.88
      7616        17.2330          85.45          87.11           8.61
      7617        17.2350          93.97          87.13           9.01
      7618        17.2370          92.06          87.16           8.99
      7619        17.2390          83.73          87.19           8.61
      7620        17.2410          85.44          87.22           8.59
      7621        17.2430          77.59          87.25           8.19
      7622        17.2450          87.22          87.29           8.69
      7623        17.2470          80.64          87.33           8.36
      7624        17.2490          85.17          87.37           8.61
      7625        17.2510         101.15          87.42           9.43
      7626        17.2530         100.96          87.47           9.33
      7627        17.2550          95.60          87.52           9.00
      7628        17.2570          87.59          87.58           8.71
      7629        17.2590          93.99          87.65           9.03
      7630        17.2610          93.05          87.72           8.95
      7631        17.2630          83.55          87.80           8.61
      7632        17.2650          86.94          87.88           8.78
      7633        17.2670          88.75          87.98           8.82
      7634        17.2690          90.10          88.09           8.88
      7635        17.2710         100.57          88.21           9.38
      7636        17.2730          84.37          88.34           8.58
      7637        17.2750          92.10          88.49           8.90
      7638        17.2770          86.06          88.66           8.66
      7639        17.2790          92.34          88.85           8.93
      7640        17.2810          94.74          89.07           9.05
      7641        17.2830          83.42          89.32           8.55
      7642        17.2850          81.25          89.60           8.41
      7643        17.2870          91.95          89.93           8.85
      7644        17.2890          90.29          90.32           8.84
      7645        17.2910         107.77          90.77           9.65
      7646        17.2930          99.89          91.30           9.35
      7647        17.2950          90.47          91.94           8.94
      7648        17.2970          94.33          92.70           9.09
      7649        17.2990          99.69          93.64           9.32
      7650        17.3010          90.58          94.80           8.87
      7651        17.3030          84.93          96.25           8.65
      7652        17.3050         100.02          98.11           9.34
      7653        17.3070          96.74         100.53           9.18
      7654        17.3090         103.32         103.83           9.46
      7655        17.3110         108.95         108.65           9.67
      7656        17.3130         114.90         116.49           9.89
      7657        17.3150         103.39         130.53           9.44
      7658        17.3170         134.52         156.50          10.70
      7659        17.3190         156.63         201.56          11.60
      7660        17.3210         209.23         269.87          13.33
      7661        17.3230         320.20         354.61          16.30
      7662        17.3250         483.74         423.94          19.97
      7663        17.3270         496.57         426.73          20.59
      7664        17.3290         481.32         360.42          20.90
      7665        17.3310         361.02         275.34          18.11
      7666        17.3330         220.42         205.38          13.97
      7667        17.3350         157.46         158.87          11.83
      7668        17.3370         138.72         131.80          11.03
      7669        17.3390         110.96         117.14           9.90
      7670        17.3410         104.60         109.00           9.61
      7671        17.3430         107.00         104.03           9.58
      7672        17.3450          93.64         100.63           8.90
      7673        17.3470         100.16          98.15           9.21
      7674        17.3490         105.58          96.25           9.61
      7675        17.3510         100.07          94.77           9.33
      7676        17.3530          82.70          93.58           8.54
      7677        17.3550          91.95          92.62           8.99
      7678        17.3570          92.94          91.84           9.00
      7679        17.3590          93.37          91.18           8.99
      7680        17.3610          99.41          90.64           9.32
      7681        17.3630          96.36          90.17           9.20
      7682        17.3650          86.66          89.77           8.75
      7683        17.3670         102.70          89.43           9.46
      7684        17.3690          89.75          89.13           8.96
      7685        17.3710          83.66          88.87           8.60
      7686        17.3730          87.38          88.64           8.72
      7687        17.3750          91.40          88.44           8.91
      7688        17.3770          97.46          88.26           9.18
      7689        17.3790          92.47          88.10           8.99
      7690        17.3810          88.30          87.96           8.76
      7691        17.3830          87.82          87.83           8.77
      7692        17.3850          86.84          87.71           8.72
      7693        17.3870          77.84          87.60           8.24
      7694        17.3890          81.63          87.50           8.43
      7695        17.3910          90.80          87.41           8.87
      7696        17.3930          87.86          87.33           8.73
      7697        17.3950          89.76          87.26           8.78
      7698        17.3970          82.53          87.19           8.51
      7699        17.3990          85.49          87.12           8.72
      7700        17.4010          90.58          87.06           8.99
      7701        17.4030          97.60          87.01           9.28
      7702        17.4050          88.30          86.95           8.82
      7703        17.4070          86.39          86.91           8.65
      7704        17.4090          83.07          86.86           8.52
      7705        17.4110          82.34          86.82           8.49
      7706        17.4130          96.80          86.78           9.15
      7707        17.4150          81.95          86.74           8.60
      7708        17.4170          84.72          86.70           8.66
      7709        17.4190          97.05          86.67           9.17
      7710        17.4210          97.70          86.64           9.20
      7711        17.4230          83.24          86.61           8.58
      7712        17.4250          94.40          86.58           9.11
      7713        17.4270          88.38          86.55           8.76
      7714        17.4290          85.80          86.52           8.61
      7715        17.4310          87.15          86.50           8.72
      7716        17.4330          70.90          86.47           7.92
      7717        17.4350          88.77          86.45           8.77
      7718        17.4370          87.92          86.43           8.79
      7719        17.4390          89.70          86.41           8.83
      7720        17.4410          84.00          86.39           8.56
      7721        17.4430          81.29          86.37           8.47
      7722        17.4450          82.88          86.35           8.58
      7723        17.4470          94.08          86.33           9.10
      7724        17.4490          81.80          86.31           8.39
      7725        17.4510          83.38          86.29           8.48
      7726        17.4530         100.93          86.28           9.34
      7727        17.4550          94.96          86.26           9.08
      7728        17.4570          77.60          86.25           8.26
      7729        17.4590          72.59          86.23           7.98
      7730        17.4610          78.87          86.21           8.30
      7731        17.4630          87.57          86.20           8.72
      7732        17.4650          88.45          86.19           8.83
      7733        17.4670          91.23          86.17           8.94
      7734        17.4690          85.49          86.16           8.66
      7735        17.4710          92.52          86.15           8.94
      7736        17.4730          81.70          86.13           8.43
      7737        17.4750          82.30          86.12           8.42
      7738        17.4770          79.98          86.11           8.29
      7739        17.4790          96.90          86.10           9.14
      7740        17.4810          99.74          86.08           9.32
      7741        17.4830          83.95          86.07           8.57
      7742        17.4850          83.16          86.06           8.39
      7743        17.4870          68.31          86.05           7.69
      7744        17.4890          82.84          86.04           8.51
      7745        17.4910          83.26          86.03           8.53
      7746        17.4930          86.71          86.02           8.74
      7747        17.4950          88.47          86.01           8.82
      7748        17.4970          88.71          85.99           8.75
      7749        17.4990          81.88          85.98           8.48
      7750        17.5010          90.62          85.97           8.90
      7751        17.5030          92.09          85.96           8.90
      7752        17.5050          80.97          85.95           8.45
      7753        17.5070          89.50          85.94           8.85
      7754        17.5090          88.08          85.93           8.75
      7755        17.5110          83.33          85.93           8.49
      7756        17.5130          79.65          85.92           8.30
      7757        17.5150          89.35          85.91           8.84
      7758        17.5170          94.09          85.90           9.06
      7759        17.5190          85.56          85.89           8.59
      7760        17.5210          88.82          85.91           8.80
      7761        17.5230          88.21          85.90           8.81
      7762        17.5250          82.27          85.89           8.56
      7763        17.5270          95.97          85.88           9.20
      7764        17.5290          78.07          85.88           8.25
      7765        17.5310          75.45          85.87           8.11
      7766        17.5330          95.87          85.86           9.09
      7767        17.5350          81.63          85.85           8.43
      7768        17.5370          82.01          85.84           8.43
      7769        17.5390          81.11          85.71           8.43
      7770        17.5410          78.51          85.71           8.22
      7771        17.5430          69.19          85.70           7.74
      7772        17.5450          79.09          85.70           8.26
      7773        17.5470          81.29          85.69           8.39
      7774        17.5490          83.56          85.69           8.52
      7775        17.5510          81.64          85.68           8.45
      7776        17.5530          83.48          85.68           8.55
      7777        17.5550          82.95          85.67           8.53
      7778        17.5570          94.49          85.66           9.00
      7779        17.5590          85.46          85.66           8.64
      7780        17.5610          88.08          85.65           8.79
      7781        17.5630          79.71          85.65           8.44
      7782        17.5650          86.47          85.64           8.82
      7783        17.5670          82.47          85.64           8.39
      7784        17.5690          71.11          85.63           7.81
      7785        17.5710          75.30          85.63           8.15
      7786        17.5730          78.81          85.62           8.33
      7787        17.5750          86.62          85.62           8.71
      7788        17.5770          70.08          85.61           7.89
      7789        17.5790          81.66          85.61           8.34
      7790        17.5810          87.98          85.60           8.68
      7791        17.5830          90.94          85.60           8.89
      7792        17.5850          81.74          85.59           8.46
      7793        17.5870          74.02          85.59           8.07
      7794        17.5890          79.65          85.58           8.32
      7795        17.5910          93.65          85.58           8.99
      7796        17.5930          84.05          85.58           8.55
      7797        17.5950          85.57          85.57           8.66
      7798        17.5970          93.50          85.57           9.01
      7799        17.5990          87.17          85.56           8.68
      7800        17.6010          94.14          85.56           9.02
      7801        17.6030          74.68          85.55           8.15
      7802        17.6050          84.93          85.55           8.66
      7803        17.6070          97.99          85.55           9.29
      7804        17.6090          86.42          85.54           8.72
      7805        17.6110          88.34          85.54           8.83
      7806        17.6130          86.68          85.53           8.74
      7807        17.6150          85.94          85.53           8.66
      7808        17.6170          90.84          85.53           8.94
      7809        17.6190          94.93          85.52           9.14
      7810        17.6210          94.69          85.52           9.09
      7811        17.6230          90.97          85.52           8.85
      7812        17.6250          76.23          85.52           8.12
      7813        17.6270          81.32          85.51           8.42
      7814        17.6290          80.92          85.51           8.42
      7815        17.6310          78.42          85.51           8.23
      7816        17.6330          69.30          85.51           7.80
      7817        17.6350          79.52          85.51           8.35
      7818        17.6370          84.19          85.50           8.58
      7819        17.6390          87.23          85.50           8.73
      7820        17.6410          92.42          85.50           9.01
      7821        17.6430          92.78          85.50           9.01
      7822        17.6450          79.77          85.50           8.32
      7823        17.6470          73.06          85.50           8.00
      7824        17.6490          80.53          85.51           8.43
      7825        17.6510          83.12          85.51           8.51
      7826        17.6530          76.92          85.51           8.23
      7827        17.6550          88.69          85.51           8.83
      7828        17.6570         107.51          85.52           9.67
      7829        17.6590         103.44          85.52           9.59
      7830        17.6610          95.76          85.53           9.26
      7831        17.6630          93.88          85.53           9.07
      7832        17.6650          92.57          85.54           9.03
      7833        17.6670          78.26          85.55           8.22
      7834        17.6690          81.39          85.56           8.29
      7835        17.6710          79.91          85.57           8.33
      7836        17.6730          90.53          85.58           8.89
      7837        17.6750          81.27          85.60           8.38
      7838        17.6770          78.98          85.62           8.26
      7839        17.6790          81.87          85.64           8.45
      7840        17.6810          93.76          85.66           9.02
      7841        17.6830          88.92          85.69           8.87
      7842        17.6850          97.11          85.72           9.26
      7843        17.6870          92.14          85.75           9.02
      7844        17.6890          90.61          85.79           8.82
      7845        17.6910          75.60          85.83           8.13
      7846        17.6930          93.30          85.89           8.96
      7847        17.6950          84.99          85.95           8.62
      7848        17.6970          84.08          86.02           8.52
      7849        17.6990          84.07          86.10           8.53
      7850        17.7010          95.68          86.20           9.14
      7851        17.7030          96.96          86.32           9.16
      7852        17.7050          90.70          86.46           8.85
      7853        17.7070          76.11          86.62           8.16
      7854        17.7090          69.59          86.83           7.79
      7855        17.7110          82.89          87.08           8.48
      7856        17.7130          87.34          87.40           8.68
      7857        17.7150          91.51          87.80           8.88
      7858        17.7170          79.32          88.32           8.24
      7859        17.7190          74.69          89.02           8.02
      7860        17.7210          97.39          90.01           9.15
      7861        17.7230          88.47          91.57           8.75
      7862        17.7250          77.17          94.26           8.22
      7863        17.7270          82.11          99.17           8.50
      7864        17.7290         104.05         107.88           9.53
      7865        17.7310         115.87         121.71          10.03
      7866        17.7330         130.83         140.40          10.62
      7867        17.7350         157.33         159.54          11.66
      7868        17.7370         206.26         168.71          13.31
      7869        17.7390         164.27         160.08          12.01
      7870        17.7410         130.05         141.06          10.71
      7871        17.7430         101.95         122.24           9.47
      7872        17.7450         102.34         108.21           9.47
      7873        17.7470         101.28          99.34           9.40
      7874        17.7490          91.95          94.30           8.97
      7875        17.7510          83.87          91.54           8.48
      7876        17.7530          75.05          89.95           8.03
      7877        17.7550          78.74          88.93           8.27
      7878        17.7570          92.47          88.21           8.99
      7879        17.7590          96.43          87.67           9.18
      7880        17.7610          92.15          87.25           8.99
      7881        17.7630          84.65          86.92           8.69
      7882        17.7650          84.75          86.65           8.54
      7883        17.7670          84.37          86.43           8.54
      7884        17.7690          87.98          86.25           8.77
      7885        17.7710          87.34          86.09           8.71
      7886        17.7730          86.79          85.96           8.69
      7887        17.7750          81.20          85.85           8.42
      7888        17.7770          85.22          85.75           8.60
      7889        17.7790          86.66          85.67           8.69
      7890        17.7810          88.38          85.59           8.73
      7891        17.7830          84.93          85.53           8.51
      7892        17.7850          77.55          85.47           8.22
      7893        17.7870          86.51          85.42           8.73
      7894        17.7890          84.34          85.37           8.61
      7895        17.7910          85.33          85.32           8.67
      7896        17.7930          90.20          85.28           8.80
      7897        17.7950          66.92          85.25           7.66
      7898        17.7970          85.00          85.22           8.59
      7899        17.7990          96.52          85.18           9.12
      7900        17.8010          75.76          85.16           8.13
      7901        17.8030          80.73          85.13           8.39
      7902        17.8050          88.68          85.10           8.77
      7903        17.8070          74.72          85.08           8.07
      7904        17.8090          71.55          85.06           7.92
      7905        17.8110          81.01          85.04           8.42
      7906        17.8130          83.43          85.02           8.56
      7907        17.8150          87.02          85.00           8.73
      7908        17.8170          85.82          84.98           8.68
      7909        17.8190          87.57          84.96           8.76
      7910        17.8210          82.15          84.95           8.46
      7911        17.8230          94.37          84.93           9.02
      7912        17.8250          80.62          84.92           8.30
      7913        17.8270          82.48          84.90           8.40
      7914        17.8290          93.87          84.89           9.13
      7915        17.8310          85.56          84.87           8.66
      7916        17.8330          82.71          84.86           8.43
      7917        17.8350          83.66          84.85           8.51
      7918        17.8370          90.16          84.84           8.79
      7919        17.8390          82.59          84.82           8.49
      7920        17.8410          92.92          84.81           8.98
      7921        17.8430          76.16          84.80           8.20
      7922        17.8450          82.45          84.79           8.49
      7923        17.8470          90.76          84.78           8.87
      7924        17.8490          94.22          84.77           9.04
      7925        17.8510          80.37          84.76           8.41
      7926        17.8530          81.93          84.75           8.51
      7927        17.8550          86.61          84.74           8.78
      7928        17.8570          98.73          84.73           9.27
      7929        17.8590          92.85          84.72           8.98
      7930        17.8610          97.36          84.71           9.17
      7931        17.8630          99.63          84.70           9.35
      7932        17.8650          91.70          84.69           8.98
      7933        17.8670          83.17          84.68           8.55
      7934        17.8690          76.99          84.67           8.19
      7935        17.8710          74.80          84.66           8.03
      7936        17.8730          65.30          84.65           7.52
      7937        17.8750          74.25          84.64           8.01
      7938        17.8770          82.73          84.63           8.48
      7939        17.8790          79.77          84.62           8.27
      7940        17.8810          73.95          84.62           7.99
      7941        17.8830          77.41          84.61           8.22
      7942        17.8850          82.07          84.60           8.46
      7943        17.8870          86.45          84.59           8.65
      7944        17.8890          83.78          84.58           8.57
      7945        17.8910          96.17          84.57           9.13
      7946        17.8930          81.38          84.56           8.41
      7947        17.8950          83.58          84.56           8.51
      7948        17.8970          85.54          84.55           8.53
      7949        17.8990          78.42          84.54           8.18
      7950        17.9010          80.31          84.53           8.36
      7951        17.9030          84.64          84.52           8.60
      7952        17.9050          80.13          84.52           8.34
      7953        17.9070          73.30          84.51           8.02
      7954        17.9090          84.75          84.50           8.56
      7955        17.9110          83.75          84.49           8.51
      7956        17.9130          81.04          84.49           8.39
      7957        17.9150          85.35          84.48           8.59
      7958        17.9170          77.48          84.47           8.22
      7959        17.9190          76.92          84.46           8.18
      7960        17.9210          90.44          84.45           8.82
      7961        17.9230          84.31          84.45           8.55
      7962        17.9250          82.71          84.44           8.50
      7963        17.9270          78.74          84.43           8.36
      7964        17.9290          90.48          84.42           8.91
      7965        17.9310          91.38          84.42           8.93
      7966        17.9330          72.54          84.41           8.02
      7967        17.9350          81.68          84.40           8.42
      7968        17.9370          65.17          84.39           7.55
      7969        17.9390          69.03          84.39           7.78
      7970        17.9410          97.66          84.38           9.23
      7971        17.9430          91.69          84.37           8.94
      7972        17.9450          76.63          84.37           8.25
      7973        17.9470          84.58          84.36           8.58
      7974        17.9490          84.74          84.35           8.63
      7975        17.9510          79.71          84.34           8.35
      7976        17.9530          76.27          84.34           8.14
      7977        17.9550          72.81          84.30           8.00
      7978        17.9570          91.63          84.29           8.90
      7979        17.9590          85.43          84.29           8.62
      7980        17.9610          71.75          84.28           7.96
      7981        17.9630          86.84          84.27           8.66
      7982        17.9650          85.32          84.27           8.62
      7983        17.9670          84.05          84.26           8.56
      7984        17.9690          67.24          84.25           7.68
      7985        17.9710          83.98          84.25           8.49
      7986        17.9730          87.08          84.24           8.67
      7987        17.9750          70.40          84.23           7.81
      7988        17.9770          75.14          84.23           8.06
      7989        17.9790          71.94          84.22           8.02
      7990        17.9810          88.33          84.21           8.76
      7991        17.9830          81.52          84.21           8.43
      7992        17.9850          75.46          84.20           8.14
      7993        17.9870          87.53          84.19           8.75
      7994        17.9890          94.56          84.19           9.07
      7995        17.9910          78.60          84.18           8.33
      7996        17.9930          78.69          84.17           8.29
      7997        17.9950          81.73          84.17           8.45
      7998        17.9970          77.80          84.16           8.30
      7999        17.9990          71.28          84.15           7.89
      8000        18.0010          87.42          84.15           8.63
      8001        18.0030          90.03          84.14           8.83
      8002        18.0050          78.43          84.14           8.20
      8003        18.0070          80.22          84.13           8.40
      8004        18.0090          80.87          84.12           8.36
      8005        18.0110          79.64          84.12           8.32
      8006        18.0130          91.56          84.11           8.88
      8007        18.0150          86.74          84.10           8.64
      8008        18.0170          87.99          84.10           8.68
      8009        18.0190          73.97          84.09           7.95
      8010        18.0210          79.84          84.08           8.38
      8011        18.0230          70.67          84.08           7.74
      8012        18.0250          99.47          84.07           9.31
      8013        18.0270          96.76          84.06           9.20
      8014        18.0290          94.57          84.06           9.07
      8015        18.0310          87.02          84.05           8.77
      8016        18.0330          80.38          84.04           8.41
      8017        18.0350          85.37          84.04           8.60
      8018        18.0370          83.94          84.03           8.54
      8019        18.0390          84.14          84.02           8.55
      8020        18.0410          86.79          84.02           8.69
      8021        18.0430          90.02          84.01           8.85
      8022        18.0450          88.01          84.00           8.72
      8023        18.0470         105.87          84.00           9.56
      8024        18.0490          70.82          83.99           7.75
      8025        18.0510          94.56          83.99           9.02
      8026        18.0530          73.76          83.98           8.04
      8027        18.0550          88.03          83.97           8.85
      8028        18.0570         100.61          83.97           9.39
      8029        18.0590          72.81          83.96           7.96
      8030        18.0610          78.23          83.95           8.16
      8031        18.0630          76.77          83.95           8.26
      8032        18.0650          79.50          83.94           8.31
      8033        18.0670          93.49          83.93           9.04
      8034        18.0690          93.84          83.93           9.01
      8035        18.0710          81.71          83.92           8.43
      8036        18.0730          82.08          83.92           8.41
      8037        18.0750          90.51          83.91           8.82
      8038        18.0770          81.25          83.90           8.32
      8039        18.0790          80.99          83.90           8.39
      8040        18.0810          82.87          83.89           8.43
      8041        18.0830          85.53          83.88           8.63
      8042        18.0850          89.52          83.88           8.78
      8043        18.0870          79.66          83.87           8.30
      8044        18.0890          65.71          83.86           7.47
      8045        18.0910          90.19          83.86           8.85
      8046        18.0930          78.54          83.85           8.29
      8047        18.0950          81.01          83.85           8.43
      8048        18.0970          91.17          83.84           8.82
      8049        18.0990          71.35          83.83           7.87
      8050        18.1010          84.43          83.83           8.51
      8051        18.1030          70.48          83.82           7.85
      8052        18.1050         115.79          83.81          10.14
      8053        18.1070          90.38          83.81           8.87
      8054        18.1090          95.56          83.80           9.14
      8055        18.1110          65.66          83.79           7.44
      8056        18.1130          85.26          83.79           8.61
      8057        18.1150          92.56          83.78           8.98
      8058        18.1170          90.11          83.78           8.92
      8059        18.1190          80.69          83.77           8.41
      8060        18.1210          85.03          83.76           8.65
      8061        18.1230          83.14          83.76           8.52
      8062        18.1250         100.81          83.75           9.34
      8063        18.1270          85.68          83.75           8.64
      8064        18.1290          82.74          83.74           8.49
      8065        18.1310          81.71          83.73           8.39
      8066        18.1330          86.08          83.73           8.66
      8067        18.1350          88.57          83.72           8.76
      8068        18.1370          81.80          83.71           8.43
      8069        18.1390          73.79          83.71           7.97
      8070        18.1410          84.19          83.70           8.48
      8071        18.1430          87.17          83.70           8.70
      8072        18.1450         104.58          83.69           9.58
      8073        18.1470          92.01          83.68           8.91
      8074        18.1490          71.35          83.68           7.78
      8075        18.1510          79.80          83.67           8.34
      8076        18.1530          94.46          83.66           9.12
      8077        18.1550          70.40          83.66           7.81
      8078        18.1570          86.53          83.65           8.60
      8079        18.1590          66.77          83.65           7.58
      8080        18.1610          82.29          83.64           8.50
      8081        18.1630          96.01          83.63           9.16
      8082        18.1650          85.61          83.63           8.61
      8083        18.1670          90.42          83.62           8.89
      8084        18.1690          84.52          83.62           8.53
      8085        18.1710          91.80          83.61           8.89
      8086        18.1730          83.07          83.60           8.55
      8087        18.1750          94.92          83.60           9.15
      8088        18.1770          89.18          83.59           8.77
      8089        18.1790          90.14          83.59           8.89
      8090        18.1810          88.70          83.58           8.75
      8091        18.1830          85.00          83.57           8.71
      8092        18.1850          83.48          83.57           8.50
      8093        18.1870          87.02          83.56           8.76
      8094        18.1890          94.60          83.56           9.04
      8095        18.1910          72.20          83.55           7.80
      8096        18.1930          60.99          83.54           7.32
      8097        18.1950          81.65          83.54           8.46
      8098        18.1970          87.10          83.53           8.71
      8099        18.1990          96.53          83.53           9.21
      8100        18.2010          88.94          83.52           8.85
      8101        18.2030          76.85          83.51           8.23
      8102        18.2050          85.10          83.51           8.66
      8103        18.2070          91.82          83.50           8.93
      8104        18.2090          96.03          83.50           9.16
      8105        18.2110          84.73          83.49           8.57
      8106        18.2130          86.21          83.48           8.67
      8107        18.2150          93.09          83.48           9.03
      8108        18.2170          83.49          83.47           8.48
      8109        18.2190          85.40          83.47           8.57
      8110        18.2210          83.10          83.46           8.52
      8111        18.2230          86.53          83.45           8.67
      8112        18.2250          70.91          83.45           7.87
      8113        18.2270          75.35          83.44           8.10
      8114        18.2290          84.05          83.44           8.52
      8115        18.2310          77.83          83.43           8.20
      8116        18.2330          71.54          83.43           7.89
      8117        18.2350          88.37          83.42           8.73
      8118        18.2370          85.91          83.41           8.63
      8119        18.2390          75.78          83.41           8.09
      8120        18.2410          77.33          83.40           8.23
      8121        18.2430          76.46          83.40           8.06
      8122        18.2450          70.83          83.39           7.89
      8123        18.2470          82.59          83.38           8.56
      8124        18.2490          79.64          83.38           8.30
      8125        18.2510          83.35          83.37           8.49
      8126        18.2530          68.95          83.37           7.77
      8127        18.2550          89.45          83.36           8.78
      8128        18.2570          79.64          83.36           8.34
      8129        18.2590          72.72          83.35           8.02
      8130        18.2610          73.43          83.34           7.99
      8131        18.2630          72.19          83.34           8.00
      8132        18.2650          86.70          83.33           8.64
      8133        18.2670          89.56          83.33           8.82
      8134        18.2690          85.55          83.32           8.65
      8135        18.2710         104.26          83.32           9.59
      8136        18.2730          88.84          83.31           8.89
      8137        18.2750          87.54          83.30           8.72
      8138        18.2770         100.22          83.30           9.29
      8139        18.2790         103.46          83.29           9.48
      8140        18.2810          82.67          83.29           8.45
      8141        18.2830          85.10          83.28           8.62
      8142        18.2850          83.17          83.28           8.48
      8143        18.2870         101.45          83.27           9.37
      8144        18.2890          82.14          83.26           8.40
      8145        18.2910          84.10          83.26           8.56
      8146        18.2930          87.41          83.25           8.81
      8147        18.2950          83.30          83.25           8.57
      8148        18.2970          78.10          83.24           8.24
      8149        18.2990          76.42          83.24           8.14
      8150        18.3010          73.13          83.23           8.06
      8151        18.3030          90.62          83.23           8.92
      8152        18.3050          84.91          83.27           8.64
      8153        18.3070          77.29          83.27           8.14
      8154        18.3090          84.34          83.26           8.55
      8155        18.3110          70.06          83.26           7.87
      8156        18.3130          90.37          83.25           8.81
      8157        18.3150          70.74          83.25           7.81
      8158        18.3170          89.72          83.24           8.89
      8159        18.3190          90.32          83.24           8.85
      8160        18.3210          99.64          83.23           9.31
      8161        18.3230          87.27          83.23           8.70
      8162        18.3250          87.02          83.23           8.65
      8163        18.3270          92.87          83.22           8.93
      8164        18.3290          89.62          83.22           8.80
      8165        18.3310          78.37          83.21           8.24
      8166        18.3330          90.04          83.21           8.86
      8167        18.3350          83.04          83.20           8.47
      8168        18.3370          72.56          83.20           7.86
      8169        18.3390          79.22          83.20           8.26
      8170        18.3410          81.07          83.19           8.35
      8171        18.3430          88.73          83.19           8.77
      8172        18.3450          73.50          83.18           8.00
      8173        18.3470          83.92          83.18           8.58
      8174        18.3490          75.03          83.18           8.02
      8175        18.3510          73.94          83.17           8.01
      8176        18.3530          81.91          83.17           8.51
      8177        18.3550          88.28          83.17           8.75
      8178        18.3570          65.99          83.16           7.44
      8179        18.3590          79.90          83.16           8.32
      8180        18.3610          93.78          83.16           8.92
      8181        18.3630          84.58          83.15           8.57
      8182        18.3650         104.87          83.15           9.52
      8183        18.3670          76.80          83.15           8.20
      8184        18.3690          89.50          83.14           8.85
      8185        18.3710          83.98          83.14           8.56
      8186        18.3730          79.48          83.14           8.33
      8187        18.3750          81.30          83.14           8.37
      8188        18.3770          92.03          83.13           9.00
      8189        18.3790          72.67          83.13           7.96
      8190        18.3810          82.43          83.13           8.52
      8191        18.3830          76.02          83.13           8.10
      8192        18.3850          81.05          83.12           8.41
      8193        18.3870          79.18          83.12           8.26
      8194        18.3890          81.75          83.12           8.42
      8195        18.3910          91.18          83.12           8.90
      8196        18.3930          82.83          83.12           8.48
      8197        18.3950          77.33          83.12           8.18
      8198        18.3970          79.69          83.11           8.21
      8199        18.3990          91.90          83.11           8.99
      8200        18.4010          79.70          83.11           8.41
      8201        18.4030          99.54          83.11           9.32
      8202        18.4050         105.15          83.11           9.53
      8203        18.4070          75.01          83.11           8.00
      8204        18.4090          78.45          83.11           8.21
      8205        18.4110          86.92          83.11           8.67
      8206        18.4130          87.43          83.11           8.72
      8207        18.4150          93.71          83.12           8.94
      8208        18.4170          86.22          83.12           8.65
      8209        18.4190          84.48          83.12           8.60
      8210        18.4210          92.31          83.12           8.93
      8211        18.4230          85.38          83.12           8.61
      8212        18.4250          92.69          83.13           8.95
      8213        18.4270          72.45          83.13           7.88
      8214        18.4290          83.72          83.13           8.54
      8215        18.4310          96.63          83.14           9.13
      8216        18.4330          90.58          83.14           8.86
      8217        18.4350          90.14          83.15           8.87
      8218        18.4370          90.00          83.16           8.75
      8219        18.4390          94.47          83.16           9.03
      8220        18.4410          94.12          83.17           9.06
      8221        18.4430          84.57          83.18           8.58
      8222        18.4450          86.44          83.19           8.61
      8223        18.4470          87.48          83.20           8.67
      8224        18.4490          89.24          83.21           8.76
      8225        18.4510          90.74          83.23           8.87
      8226        18.4530          76.62          83.24           8.16
      8227        18.4550          84.27          83.26           8.60
      8228        18.4570          86.02          83.28           8.66
      8229        18.4590          94.48          83.30           8.99
      8230        18.4610          78.61          83.32           8.21
      8231        18.4630          79.13          83.34           8.31
      8232        18.4650          92.80          83.37           9.03
      8233        18.4670          86.00          83.40           8.59
      8234        18.4690          79.15          83.43           8.24
      8235        18.4710          84.31          83.47           8.52
      8236        18.4730          71.24          83.51           7.78
      8237        18.4750          88.16          83.56           8.78
      8238        18.4770          88.65          83.61           8.79
      8239        18.4790         100.44          83.67           9.32
      8240        18.4810          82.13          83.74           8.43
      8241        18.4830          81.35          83.81           8.36
      8242        18.4850          81.18          83.90           8.38
      8243        18.4870          82.30          83.99           8.41
      8244        18.4890          82.06          84.10           8.42
      8245        18.4910          71.52          84.23           7.86
      8246        18.4930          94.00          84.38           9.00
      8247        18.4950          87.90          84.55           8.72
      8248        18.4970          89.03          84.75           8.83
      8249        18.4990          88.13          84.99           8.77
      8250        18.5010          94.99          85.27           9.13
      8251        18.5030          94.04          85.61           8.93
      8252        18.5050          87.08          86.03           8.66
      8253        18.5070          93.24          86.54           8.99
      8254        18.5090         101.34          87.18           9.31
      8255        18.5110          89.07          88.00           8.77
      8256        18.5130          81.10          89.06           8.34
      8257        18.5150          79.32          90.52           8.25
      8258        18.5170          90.79          92.70           8.91
      8259        18.5190          93.99          96.26           9.08
      8260        18.5210         106.48         102.55           9.56
      8261        18.5230         104.39         113.71           9.55
      8262        18.5250         112.80         132.18           9.99
      8263        18.5270         150.18         159.14          11.44
      8264        18.5290         218.15         192.18          13.90
      8265        18.5310         279.43         221.15          15.63
      8266        18.5330         239.50         228.55          14.19
      8267        18.5350         194.60         208.33          12.86
      8268        18.5370         134.47         175.47          10.70
      8269        18.5390         125.94         144.75          10.47
      8270        18.5410          82.12         121.95           8.35
      8271        18.5430          95.84         107.37           9.12
      8272        18.5450          93.70          98.91           8.98
      8273        18.5470          83.28          94.19           8.46
      8274        18.5490          76.01          91.42           8.14
      8275        18.5510          94.35          89.65           9.14
      8276        18.5530          87.41          88.40           8.70
      8277        18.5550          89.66          87.46           8.79
      8278        18.5570          84.03          86.73           8.55
      8279        18.5590          92.14          86.15           8.93
      8280        18.5610          76.13          85.68           8.14
      8281        18.5630          81.68          85.29           8.38
      8282        18.5650          75.13          84.97           8.06
      8283        18.5670          89.15          84.70           8.82
      8284        18.5690          90.32          84.47           8.81
      8285        18.5710          83.30          84.28           8.50
      8286        18.5730          87.77          84.11           8.73
      8287        18.5750          92.43          83.96           8.93
      8288        18.5770          89.01          83.83           8.80
      8289        18.5790          94.84          83.72           9.04
      8290        18.5810          89.13          83.62           8.81
      8291        18.5830          83.94          83.53           8.55
      8292        18.5850          91.05          83.45           8.91
      8293        18.5870          72.06          83.38           7.90
      8294        18.5890          61.98          83.32           7.29
      8295        18.5910          91.07          83.26           8.98
      8296        18.5930          85.72          83.20           8.57
      8297        18.5950          87.92          83.15           8.62
      8298        18.5970          66.95          83.11           7.62
      8299        18.5990          70.41          83.07           7.81
      8300        18.6010          86.37          83.03           8.62
      8301        18.6030          80.59          82.99           8.32
      8302        18.6050          79.59          82.96           8.25
      8303        18.6070          78.81          82.93           8.17
      8304        18.6090          72.15          82.90           7.96
      8305        18.6110          82.96          82.87           8.45
      8306        18.6130          68.15          82.85           7.66
      8307        18.6150          93.71          82.83           9.02
      8308        18.6170          69.26          82.80           7.71
      8309        18.6190          78.38          82.78           8.17
      8310        18.6210          93.33          82.76           8.97
      8311        18.6230          76.89          82.74           8.15
      8312        18.6250          74.76          82.72           7.95
      8313        18.6270          85.99          82.71           8.67
      8314        18.6290          88.54          82.69           8.72
      8315        18.6310          85.16          82.67           8.65
      8316        18.6330          92.39          82.66           8.91
      8317        18.6350          79.06          82.65           8.24
      8318        18.6370          93.76          82.63           9.00
      8319        18.6390          95.65          82.62           9.17
      8320        18.6410          80.93          82.60           8.37
      8321        18.6430          76.72          82.59           8.11
      8322        18.6450          84.33          82.58           8.53
      8323        18.6470          84.90          82.57           8.58
      8324        18.6490          84.21          82.56           8.50
      8325        18.6510          79.46          82.55           8.32
      8326        18.6530          95.01          82.54           9.04
      8327        18.6550          94.73          82.53           9.07
      8328        18.6570          99.17          82.52           9.24
      8329        18.6590          79.27          82.51           8.21
      8330        18.6610          85.84          82.50           8.62
      8331        18.6630          91.35          82.49           8.91
      8332        18.6650          84.64          82.48           8.61
      8333        18.6670          81.21          82.47           8.40
      8334        18.6690          90.93          82.46           8.85
      8335        18.6710         114.18          82.45           9.96
      8336        18.6730          89.48          82.44           8.84
      8337        18.6750          87.97          82.43           8.76
      8338        18.6770          78.01          82.43           8.24
      8339        18.6790          97.19          82.42           9.17
      8340        18.6810          81.26          82.41           8.38
      8341        18.6830          97.17          82.40           9.25
      8342        18.6850          88.21          82.42           8.73
      8343        18.6870          79.85          82.41           8.26
      8344        18.6890          80.09          82.41           8.37
      8345        18.6910          87.70          82.40           8.75
      8346        18.6930          80.64          82.39           8.34
      8347        18.6950          78.55          82.39           8.21
      8348        18.6970          82.91          82.38           8.32
      8349        18.6990          81.46          82.37           8.37
      8350        18.7010          93.01          82.37           8.98
      8351        18.7030          74.13          82.36           7.93
      8352        18.7050         102.46          82.36           9.37
      8353        18.7070          78.32          82.35           8.23
      8354        18.7090          77.26          82.34           8.21
      8355        18.7110          87.30          82.34           8.70
      8356        18.7130          98.17          82.33           9.24
      8357        18.7150          89.66          82.33           8.86
      8358        18.7170          82.79          82.32           8.46
      8359        18.7190          84.73          82.32           8.59
      8360        18.7210          89.40          82.31           8.75
      8361        18.7230          86.86          82.30           8.64
      8362        18.7250          90.12          82.30           8.77
      8363        18.7270          78.45          82.29           8.25
      8364        18.7290          76.04          82.29           8.17
      8365        18.7310          84.08          82.28           8.58
      8366        18.7330          72.27          82.28           7.90
      8367        18.7350          68.50          82.27           7.67
      8368        18.7370          80.70          82.27           8.40
      8369        18.7390          86.93          82.26           8.75
      8370        18.7410          87.33          82.26           8.78
      8371        18.7430          76.11          82.26           8.16
      8372        18.7450          90.55          82.25           8.92
      8373        18.7470          79.46          82.25           8.32
      8374        18.7490          84.79          82.24           8.60
      8375        18.7510          89.22          82.24           8.79
      8376        18.7530          80.92          82.23           8.40
      8377        18.7550          68.49          82.23           7.73
      8378        18.7570          84.25          82.23           8.51
      8379        18.7590         100.73          82.22           9.42
      8380        18.7610          84.05          82.17           8.54
      8381        18.7630          83.26          82.16           8.43
      8382        18.7650          83.17          82.16           8.46
      8383        18.7670          84.61          82.16           8.58
      8384        18.7690          91.13          82.15           8.93
      8385        18.7710          70.83          82.15           7.84
      8386        18.7730          90.58          82.15           8.89
      8387        18.7750          78.51          82.15           8.23
      8388        18.7770          80.47          82.14           8.33
      8389        18.7790          77.77          82.14           8.27
      8390        18.7810          93.22          82.14           9.02
      8391        18.7830          79.72          82.14           8.24
      8392        18.7850          78.38          82.13           8.22
      8393        18.7870          80.10          82.13           8.29
      8394        18.7890          86.51          82.13           8.60
      8395        18.7910          79.84          82.13           8.26
      8396        18.7930          89.82          82.13           8.85
      8397        18.7950          94.54          82.12           9.05
      8398        18.7970          97.58          82.12           9.15
      8399        18.7990          64.81          82.12           7.49
      8400        18.8010          74.50          82.12           8.00
      8401        18.8030          86.69          82.12           8.73
      8402        18.8050          83.68          82.12           8.50
      8403        18.8070          83.83          82.12           8.45
      8404        18.8090          80.26          82.12           8.29
      8405        18.8110          80.37          82.12           8.32
      8406        18.8130          85.35          82.12           8.54
      8407        18.8150          77.61          82.12           8.23
      8408        18.8170          74.85          82.12           7.97
      8409        18.8190          81.66          82.12           8.41
      8410        18.8210          88.59          82.12           8.75
      8411        18.8230          73.88          82.12           7.96
      8412        18.8250          76.23          82.12           8.04
      8413        18.8270          78.65          82.12           8.27
      8414        18.8290          85.90          82.12           8.61
      8415        18.8310          85.25          82.13           8.60
      8416        18.8330          98.70          82.13           9.17
      8417        18.8350          82.38          82.14           8.42
      8418        18.8370          80.07          82.14           8.22
      8419        18.8390          82.50          82.15           8.46
      8420        18.8410          86.41          82.15           8.71
      8421        18.8430          83.06          82.16           8.53
      8422        18.8450          73.06          82.17           7.95
      8423        18.8470          98.01          82.18           9.17
      8424        18.8490          85.36          82.19           8.61
      8425        18.8510          89.04          82.20           8.72
      8426        18.8530          86.92          82.21           8.70
      8427        18.8550          88.42          82.22           8.74
      8428        18.8570          87.13          82.24           8.72
      8429        18.8590         105.10          82.26           9.50
      8430        18.8610          68.96          82.28           7.71
      8431        18.8630          90.85          82.30           8.90
      8432        18.8650          83.04          82.33           8.42
      8433        18.8670          86.50          82.36           8.58
      8434        18.8690          76.69          82.40           8.12
      8435        18.8710          90.20          82.44           8.74
      8436        18.8730          78.19          82.48           8.17
      8437        18.8750          88.62          82.54           8.85
      8438        18.8770          93.06          82.60           9.03
      8439        18.8790          82.89          82.67           8.39
      8440        18.8810          82.36          82.75           8.46
      8441        18.8830          82.45          82.85           8.44
      8442        18.8850          91.57          82.97           8.97
      8443        18.8870          81.88          83.11           8.38
      8444        18.8890          82.61          83.28           8.50
      8445        18.8910          96.52          83.48           9.06
      8446        18.8930          95.33          83.74           9.04
      8447        18.8950          79.90          84.06           8.28
      8448        18.8970          86.01          84.47           8.72
      8449        18.8990          78.93          85.02           8.26
      8450        18.9010          84.06          85.78           8.46
      8451        18.9030          85.83          86.96           8.70
      8452        18.9050          92.93          88.93           9.07
      8453        18.9070          93.62          92.41           9.01
      8454        18.9090          88.03          98.44           8.75
      8455        18.9110          95.60         108.01           9.13
      8456        18.9130         120.80         121.33          10.30
      8457        18.9150         126.21         136.63          10.48
      8458        18.9170         150.65         148.49          11.57
      8459        18.9190         158.59         149.33          11.87
      8460        18.9210         142.61         138.46          11.19
      8461        18.9230         153.96         123.19          11.45
      8462        18.9250         139.43         109.45          10.82
      8463        18.9270         127.55          99.39          10.38
      8464        18.9290         102.70          92.96           9.38
      8465        18.9310          85.09          89.20           8.53
      8466        18.9330          95.01          87.08           9.09
      8467        18.9350         101.72          85.83           9.42
      8468        18.9370          89.53          85.01           8.76
      8469        18.9390          76.06          84.44           8.09
      8470        18.9410          82.42          84.00           8.42
      8471        18.9430          92.41          83.66           8.91
      8472        18.9450          81.97          83.39           8.39
      8473        18.9470          98.81          83.17           9.25
      8474        18.9490          83.40          82.98           8.48
      8475        18.9510          94.16          82.83           9.08
      8476        18.9530          78.76          82.70           8.20
      8477        18.9550          76.56          82.59           8.12
      8478        18.9570          97.66          82.50           9.22
      8479        18.9590          80.40          82.42           8.28
      8480        18.9610          75.89          82.34           8.10
      8481        18.9630          83.79          82.28           8.47
      8482        18.9650          76.41          82.22           8.14
      8483        18.9670          78.50          82.17           8.17
      8484        18.9690          83.75          82.13           8.42
      8485        18.9710          75.22          82.09           8.04
      8486        18.9730          83.37          82.05           8.55
      8487        18.9750          87.57          82.02           8.74
      8488        18.9770          81.56          81.99           8.36
      8489        18.9790          76.50          81.96           8.18
      8490        18.9810          71.86          81.93           7.90
      8491        18.9830          80.59          81.91           8.31
      8492        18.9850          85.14          81.89           8.59
      8493        18.9870          78.70          81.87           8.26
      8494        18.9890          82.00          81.85           8.49
      8495        18.9910          93.92          81.83           9.01
      8496        18.9930          70.31          81.81           7.77
      8497        18.9950          80.97          81.79           8.37
      8498        18.9970          89.58          81.78           8.82
      8499        18.9990          80.18          81.76           8.26
      8500        19.0010          63.99          81.75           7.52
      8501        19.0030          68.05          81.74           7.69
      8502        19.0050          91.76          81.72           8.88
      8503        19.0070          93.96          81.71           9.05
      8504        19.0090          93.37          81.70           8.95
      8505        19.0110          72.34          81.69           7.90
      8506        19.0130          72.41          81.68           7.95
      8507        19.0150          72.89          81.67           7.96
      8508        19.0170          70.64          81.66           7.77
      8509        19.0190          79.21          81.65           8.27
      8510        19.0210          79.83          81.64           8.30
      8511        19.0230          73.62          81.63           7.86
      8512        19.0250          83.14          81.62           8.57
      8513        19.0270         102.85          81.61           9.43
      8514        19.0290          74.80          81.60           8.09
      8515        19.0310          91.88          81.59           9.02
      8516        19.0330          77.95          81.58           8.23
      8517        19.0350          64.77          81.57           7.45
      8518        19.0370          81.44          81.56           8.39
      8519        19.0390          88.35          81.56           8.77
      8520        19.0410          96.97          81.55           9.17
      8521        19.0430          78.04          81.54           8.31
      8522        19.0450          77.37          81.53           8.15
      8523        19.0470          79.34          81.53           8.23
      8524        19.0490          70.81          81.52           7.81
      8525        19.0510          75.88          81.51           8.13
      8526        19.0530          79.33          81.50           8.29
      8527        19.0550          79.23          81.50           8.32
      8528        19.0570          95.81          81.49           9.05
      8529        19.0590          91.65          81.53           8.90
      8530        19.0610          85.10          81.53           8.55
      8531        19.0630          87.36          81.52           8.65
      8532        19.0650          69.86          81.52           7.74
      8533        19.0670          85.34          81.51           8.61
      8534        19.0690          69.42          81.50           7.73
      8535        19.0710          76.35          81.50           8.08
      8536        19.0730          80.81          81.49           8.33
      8537        19.0750          73.74          81.49           8.04
      8538        19.0770          75.32          81.48           8.05
      8539        19.0790          73.12          81.48           7.92
      8540        19.0810          87.80          81.47           8.68
      8541        19.0830          92.92          81.47           8.96
      8542        19.0850          71.00          81.46           7.92
      8543        19.0870          73.82          81.46           7.96
      8544        19.0890          86.52          81.45           8.61
      8545        19.0910          81.00          81.45           8.39
      8546        19.0930          86.25          81.44           8.65
      8547        19.0950          82.90          81.44           8.48
      8548        19.0970          70.64          81.43           7.82
      8549        19.0990          97.05          81.43           9.16
      8550        19.1010          92.27          81.42           8.88
      8551        19.1030          85.63          81.42           8.66
      8552        19.1050          76.99          81.41           8.18
      8553        19.1070          85.60          81.41           8.64
      8554        19.1090          77.02          81.40           8.07
      8555        19.1110          87.70          81.40           8.71
      8556        19.1130          60.67          81.39           7.16
      8557        19.1150          77.92          81.39           8.20
      8558        19.1170          82.74          81.39           8.51
      8559        19.1190          81.30          81.38           8.38
      8560        19.1210          84.68          81.38           8.57
      8561        19.1230          82.06          81.37           8.35
      8562        19.1250          89.55          81.37           8.87
      8563        19.1270          82.46          81.37           8.48
      8564        19.1290          90.50          81.36           8.89
      8565        19.1310          90.73          81.36           8.91
      8566        19.1330          89.82          81.35           8.76
      8567        19.1350          84.12          81.35           8.50
      8568        19.1370          72.86          81.35           7.85
      8569        19.1390          66.20          81.34           7.57
      8570        19.1410          82.80          81.34           8.47
      8571        19.1430          90.02          81.34           8.84
      8572        19.1450          80.83          81.34           8.32
      8573        19.1470          87.39          81.33           8.61
      8574        19.1490          88.66          81.33           8.88
      8575        19.1510          73.67          81.33           7.97
      8576        19.1530          78.60          81.30           8.19
      8577        19.1550          82.95          81.30           8.40
      8578        19.1570          80.88          81.30           8.35
      8579        19.1590          81.32          81.30           8.28
      8580        19.1610          87.39          81.30           8.69
      8581        19.1630          81.53          81.29           8.36
      8582        19.1650          76.26          81.29           8.17
      8583        19.1670          78.49          81.29           8.21
      8584        19.1690          85.60          81.29           8.61
      8585        19.1710          88.37          81.29           8.69
      8586        19.1730          95.71          81.29           9.11
      8587        19.1750          84.45          81.29           8.58
      8588        19.1770          76.78          81.29           8.15
      8589        19.1790         101.19          81.30           9.34
      8590        19.1810          63.06          81.30           7.27
      8591        19.1830          74.09          81.30           8.00
      8592        19.1850          74.38          81.30           8.01
      8593        19.1870          78.88          81.30           8.32
      8594        19.1890          90.24          81.31           8.87
      8595        19.1910          87.90          81.31           8.73
      8596        19.1930          86.64          81.31           8.73
      8597        19.1950         101.91          81.32           9.36
      8598        19.1970          82.04          81.33           8.42
      8599        19.1990          91.26          81.33           8.90
      8600        19.2010          64.73          81.34           7.45
      8601        19.2030          79.55          81.35           8.28
      8602        19.2050          84.60          81.36           8.57
      8603        19.2070          82.29          81.36           8.53
      8604        19.2090          81.99          81.38           8.39
      8605        19.2110          78.24          81.39           8.31
      8606        19.2130          75.76          81.40           8.13
      8607        19.2150          83.78          81.42           8.53
      8608        19.2170          71.95          81.43           7.91
      8609        19.2190          89.07          81.45           8.87
      8610        19.2210          87.15          81.47           8.64
      8611        19.2230          87.05          81.49           8.62
      8612        19.2250          79.56          81.52           8.27
      8613        19.2270          78.72          81.54           8.24
      8614        19.2290          83.36          81.58           8.50
      8615        19.2310          78.02          81.61           8.20
      8616        19.2330          92.64          81.65           8.84
      8617        19.2350          73.70          81.69           7.99
      8618        19.2370          75.98          81.74           8.13
      8619        19.2390          79.07          81.79           8.16
      8620        19.2410          80.73          81.85           8.23
      8621        19.2430          93.35          81.91           8.91
      8622        19.2450          83.10          81.99           8.59
      8623        19.2470          80.12          82.07           8.32
      8624        19.2490          89.36          82.17           8.73
      8625        19.2510          89.80          82.28           8.83
      8626        19.2530          84.29          82.40           8.49
      8627        19.2550          72.27          82.55           7.86
      8628        19.2570          78.01          82.72           8.20
      8629        19.2590          75.10          82.91           8.07
      8630        19.2610          83.66          83.14           8.62
      8631        19.2630          88.55          83.42           8.86
      8632        19.2650          97.65          83.74           9.19
      8633        19.2670          80.84          84.13           8.34
      8634        19.2690          73.08          84.61           7.93
      8635        19.2710          84.02          85.20           8.61
      8636        19.2730          97.67          85.93           9.20
      8637        19.2750          99.98          86.88           9.29
      8638        19.2770          94.03          88.12           9.04
      8639        19.2790          89.45          89.87           8.85
      8640        19.2810          82.96          92.55           8.42
      8641        19.2830          86.80          97.05           8.71
      8642        19.2850         103.00         104.93           9.40
      8643        19.2870         111.19         118.38           9.80
      8644        19.2890         127.00         139.56          10.61
      8645        19.2910         142.14         168.92          11.19
      8646        19.2930         191.53         202.74          13.13
      8647        19.2950         283.46         230.09          15.97
      8648        19.2970         262.47         234.57          15.14
      8649        19.2990         251.89         212.77          14.41
      8650        19.3010         224.76         179.34          13.48
      8651        19.3030         173.10         147.88          11.99
      8652        19.3050         127.62         124.04          10.38
      8653        19.3070          94.98         108.36           8.99
      8654        19.3090          86.85          98.96           8.54
      8655        19.3110          93.80          93.60           8.97
      8656        19.3130          92.36          90.46           8.88
      8657        19.3150          97.29          88.47           9.19
      8658        19.3170          90.26          87.08           8.82
      8659        19.3190          81.34          86.04           8.42
      8660        19.3210          95.18          85.23           9.00
      8661        19.3230          87.76          84.59           8.70
      8662        19.3250          97.35          84.06           9.15
      8663        19.3270          83.07          83.63           8.51
      8664        19.3290          87.83          83.27           8.73
      8665        19.3310          84.51          82.97           8.62
      8666        19.3330          93.45          82.71           8.94
      8667        19.3350          82.42          82.49           8.38
      8668        19.3370          99.39          82.30           9.25
      8669        19.3390          79.36          82.14           8.28
      8670        19.3410          79.19          81.99           8.22
      8671        19.3430          80.75          81.86           8.36
      8672        19.3450          88.41          81.75           8.74
      8673        19.3470         102.69          81.64           9.44
      8674        19.3490          90.48          81.55           8.93
      8675        19.3510          73.98          81.47           7.91
      8676        19.3530          77.82          81.39           8.27
      8677        19.3550          83.58          81.32           8.53
      8678        19.3570          84.14          81.26           8.51
      8679        19.3590          76.85          81.20           8.14
      8680        19.3610          87.37          81.15           8.69
      8681        19.3630          72.84          81.10           7.96
      8682        19.3650          80.68          81.05           8.39
      8683        19.3670          86.36          81.01           8.68
      8684        19.3690          89.54          80.97           8.89
      8685        19.3710          85.84          80.93           8.58
      8686        19.3730          88.54          80.90           8.76
      8687        19.3750          84.93          80.86           8.60
      8688        19.3770          90.55          80.83           8.91
      8689        19.3790          77.58          80.80           8.25
      8690        19.3810          83.32          80.77           8.53
      8691        19.3830          78.41          80.75           8.23
      8692        19.3850          78.90          80.72           8.18
      8693        19.3870          97.08          80.70           9.25
      8694        19.3890         100.77          80.67           9.32
      8695        19.3910          81.81          80.65           8.32
      8696        19.3930          72.57          80.63           7.95
      8697        19.3950         101.75          80.61           9.34
      8698        19.3970          94.12          80.59           9.07
      8699        19.3990          83.84          80.57           8.57
      8700        19.4010          80.87          80.55           8.36
      8701        19.4030          70.75          80.53           7.80
      8702        19.4050          81.40          80.51           8.40
      8703        19.4070          72.08          80.49           7.82
      8704        19.4090          90.74          80.48           8.80
      8705        19.4110          76.45          80.46           8.16
      8706        19.4130          77.32          80.44           8.20
      8707        19.4150          95.56          80.43           9.17
      8708        19.4170          94.98          80.41           9.12
      8709        19.4190          92.71          80.40           8.91
      8710        19.4210          97.49          80.38           9.13
      8711        19.4230          72.76          80.37           7.95
      8712        19.4250          81.12          80.36           8.42
      8713        19.4270          79.61          80.34           8.33
      8714        19.4290          75.06          80.33           8.05
      8715        19.4310          86.14          80.31           8.66
      8716        19.4330          96.43          80.30           9.22
      8717        19.4350          83.52          80.29           8.49
      8718        19.4370          74.80          80.27           8.09
      8719        19.4390          74.02          80.26           8.04
      8720        19.4410          96.62          80.25           9.14
      8721        19.4430          68.54          80.23           7.64
      8722        19.4450          80.85          80.22           8.32
      8723        19.4470          68.26          80.21           7.66
      8724        19.4490          82.59          80.20           8.51
      8725        19.4510          94.51          80.18           9.05
      8726        19.4530          87.87          80.17           8.67
      8727        19.4550          77.45          80.16           8.19
      8728        19.4570          73.85          80.15           7.95
      8729        19.4590          79.84          80.13           8.26
      8730        19.4610          89.96          80.12           8.89
      8731        19.4630          66.82          80.11           7.57
      8732        19.4650          84.76          80.10           8.59
      8733        19.4670          98.73          80.09           9.17
      8734        19.4690          82.22          80.08           8.47
      8735        19.4710          84.90          80.06           8.50
      8736        19.4730          77.68          80.05           8.10
      8737        19.4750          85.10          80.04           8.62
      8738        19.4770          73.04          80.03           7.90
      8739        19.4790          87.20          80.02           8.68
      8740        19.4810          87.80          80.01           8.73
      8741        19.4830          71.97          79.99           7.90
      8742        19.4850          73.52          79.98           7.96
      8743        19.4870          78.66          79.97           8.23
      8744        19.4890          82.87          79.96           8.39
      8745        19.4910          80.28          79.95           8.26
      8746        19.4930          75.49          79.94           8.13
      8747        19.4950          85.60          79.93           8.49
      8748        19.4970          74.50          79.92           8.03
      8749        19.4990          86.13          79.90           8.55
      8750        19.5010          82.59          79.89           8.47
      8751        19.5030          76.53          79.88           8.17
      8752        19.5050          83.09          79.87           8.46
      8753        19.5070          62.21          79.86           7.26
      8754        19.5090          82.52          79.85           8.45
      8755        19.5110          78.37          79.84           8.23
      8756        19.5130          77.52          79.83           8.16
      8757        19.5150          72.54          79.82           7.93
      8758        19.5170          86.32          79.80           8.63
      8759        19.5190          70.43          79.79           7.76
      8760        19.5210          81.67          79.78           8.45
      8761        19.5230          69.56          79.77           7.79
      8762        19.5250          77.85          79.76           8.18
      8763        19.5270          84.82          79.75           8.48
      8764        19.5290          78.36          79.74           8.21
      8765        19.5310          73.22          79.73           7.88
      8766        19.5330          83.61          79.72           8.55
      8767        19.5350          74.17          79.65           8.00
      8768        19.5370          83.03          79.64           8.41
      8769        19.5390          81.34          79.63           8.35
      8770        19.5410          83.18          79.62           8.45
      8771        19.5430          85.21          79.61           8.59
      8772        19.5450          89.90          79.60           8.78
      8773        19.5470          73.29          79.59           7.95
      8774        19.5490          83.62          79.58           8.49
      8775        19.5510          77.02          79.57           8.13
      8776        19.5530          66.94          79.56           7.63
      8777        19.5550          75.63          79.55           8.02
      8778        19.5570          74.70          79.54           8.08
      8779        19.5590          80.90          79.53           8.39
      8780        19.5610          90.81          79.52           8.83
      8781        19.5630          80.96          79.51           8.46
      8782        19.5650          80.21          79.50           8.36
      8783        19.5670          89.38          79.49           8.82
      8784        19.5690          71.78          79.48           7.91
      8785        19.5710          76.17          79.47           8.12
      8786        19.5730          79.31          79.46           8.28
      8787        19.5750          86.66          79.45           8.67
      8788        19.5770          80.31          79.44           8.31
      8789        19.5790          92.64          79.43           8.93
      8790        19.5810          73.11          79.42           8.00
      8791        19.5830          87.17          79.41           8.67
      8792        19.5850          80.90          79.40           8.29
      8793        19.5870          76.07          79.39           8.10
      8794        19.5890          87.43          79.38           8.68
      8795        19.5910          86.44          79.37           8.57
      8796        19.5930          83.52          79.36           8.54
      8797        19.5950          74.46          79.35           7.99
      8798        19.5970          81.75          79.35           8.46
      8799        19.5990          87.07          79.34           8.64
      8800        19.6010          92.72          79.33           8.98
      8801        19.6030          84.43          79.32           8.57
      8802        19.6050          86.84          79.31           8.68
      8803        19.6070          71.55          79.31           7.81
      8804        19.6090          72.02          79.30           7.90
      8805        19.6110          91.55          79.29           8.84
      8806        19.6130          95.77          79.29           9.11
      8807        19.6150          86.20          79.28           8.62
      8808        19.6170          78.36          79.28           8.16
      8809        19.6190          73.02          79.27           7.97
      8810        19.6210          89.17          79.27           8.77
      8811        19.6230          77.81          79.27           8.21
      8812        19.6250          86.63          79.27           8.68
      8813        19.6270          82.80          79.27           8.60
      8814        19.6290          80.29          79.27           8.40
      8815        19.6310          77.53          79.28           8.20
      8816        19.6330          89.46          79.29           8.83
      8817        19.6350          72.07          79.30           7.90
      8818        19.6370          83.37          79.32           8.46
      8819        19.6390          85.79          79.34           8.70
      8820        19.6410          98.07          79.37           9.19
      8821        19.6430          79.57          79.41           8.28
      8822        19.6450          58.94          79.47           7.10
      8823        19.6470          88.30          79.55           8.73
      8824        19.6490          76.16          79.65           8.15
      8825        19.6510          78.84          79.82           8.23
      8826        19.6530          71.72          80.09           7.89
      8827        19.6550          94.57          80.56           9.03
      8828        19.6570          94.43          81.38           9.02
      8829        19.6590          86.83          82.74           8.75
      8830        19.6610         101.27          84.73           9.38
      8831        19.6630          92.48          87.29           8.94
      8832        19.6650          95.89          89.89           9.14
      8833        19.6670         101.02          91.43           9.31
      8834        19.6690         111.37          90.87           9.75
      8835        19.6710          92.57          88.60           8.92
      8836        19.6730          93.29          85.90           8.92
      8837        19.6750          83.30          83.56           8.45
      8838        19.6770          86.84          81.86           8.59
      8839        19.6790          81.59          80.77           8.40
      8840        19.6810          84.86          80.12           8.65
      8841        19.6830          87.46          79.74           8.66
      8842        19.6850          80.12          79.50           8.33
      8843        19.6870          78.57          79.35           8.22
      8844        19.6890          83.98          79.23           8.49
      8845        19.6910          85.01          79.14           8.57
      8846        19.6930          91.55          79.07           8.87
      8847        19.6950          89.94          79.00           8.74
      8848        19.6970          74.29          78.95           7.91
      8849        19.6990          83.44          78.90           8.49
      8850        19.7010          74.31          78.86           7.97
      8851        19.7030          83.34          78.83           8.45
      8852        19.7050          84.41          78.79           8.61
      8853        19.7070          71.74          78.76           7.92
      8854        19.7090          95.23          78.74           9.05
      8855        19.7110          66.80          78.71           7.54
      8856        19.7130          63.85          78.68           7.36
      8857        19.7150          81.83          78.66           8.38
      8858        19.7170          78.46          78.64           8.21
      8859        19.7190          82.13          78.62           8.45
      8860        19.7210          71.03          78.60           7.85
      8861        19.7230          78.44          78.58           8.26
      8862        19.7250          80.02          78.56           8.27
      8863        19.7270          70.49          78.54           7.71
      8864        19.7290          89.28          78.52           8.79
      8865        19.7310          76.37          78.50           8.09
      8866        19.7330          85.59          78.49           8.65
      8867        19.7350          87.19          78.47           8.68
      8868        19.7370          87.92          78.45           8.69
      8869        19.7390          76.04          78.43           8.00
      8870        19.7410          77.00          78.42           8.16
      8871        19.7430          69.96          78.40           7.81
      8872        19.7450          80.52          78.38           8.30
      8873        19.7470          76.78          78.37           8.11
      8874        19.7490         104.06          78.35           9.52
      8875        19.7510          86.86          78.34           8.67
      8876        19.7530          93.09          78.32           8.99
      8877        19.7550          88.38          78.30           8.74
      8878        19.7570          76.25          78.29           8.05
      8879        19.7590          81.78          78.27           8.37
      8880        19.7610          71.30          78.26           7.83
      8881        19.7630          85.82          78.24           8.62
      8882        19.7650          71.75          78.22           7.90
      8883        19.7670          85.47          78.21           8.56
      8884        19.7690          93.05          78.19           8.87
      8885        19.7710          77.21          78.18           8.14
      8886        19.7730          78.97          78.16           8.23
      8887        19.7750          81.26          78.15           8.38
      8888        19.7770          77.05          78.13           8.16
      8889        19.7790          87.03          78.12           8.70
      8890        19.7810          71.24          78.10           7.93
      8891        19.7830          78.80          78.08           8.24
      8892        19.7850          85.11          78.07           8.52
      8893        19.7870          77.38          78.05           8.20
      8894        19.7890          85.36          78.04           8.61
      8895        19.7910          72.37          78.02           7.87
      8896        19.7930          77.27          78.01           8.21
      8897        19.7950          84.11          77.99           8.49
      8898        19.7970          86.24          77.97           8.53
      8899        19.7990          73.44          77.96           7.96
      8900        19.8010          91.37          77.94           8.84
      8901        19.8030          77.09          77.93           8.07
      8902        19.8050          86.01          77.91           8.63
      8903        19.8070          83.53          77.90           8.48
      8904        19.8090          77.74          77.88           8.20
      8905        19.8110          71.10          77.86           7.81
      8906        19.8130          77.92          77.85           8.11
      8907        19.8150          63.32          77.83           7.44
      8908        19.8170          75.46          77.82           8.10
      8909        19.8190          83.17          77.80           8.47
      8910        19.8210          80.44          77.79           8.35
      8911        19.8230          81.77          77.77           8.30
      8912        19.8250          81.58          77.75           8.37
      8913        19.8270          74.23          77.74           8.01
      8914        19.8290          74.67          77.72           8.05
      8915        19.8310          75.53          77.70           8.12
      8916        19.8330          73.91          77.69           7.98
      8917        19.8350          79.53          77.67           8.34
      8918        19.8370          71.40          77.66           7.91
      8919        19.8390          76.42          77.64           8.12
      8920        19.8410          76.18          77.62           7.99
      8921        19.8430          79.77          77.61           8.34
      8922        19.8450          75.15          77.59           8.12
      8923        19.8470          65.74          77.58           7.55
      8924        19.8490          74.56          77.56           7.96
      8925        19.8510          79.95          77.54           8.36
      8926        19.8530          84.23          77.53           8.53
      8927        19.8550          74.89          77.51           7.98
      8928        19.8570          81.41          77.49           8.43
      8929        19.8590          78.15          77.48           8.24
      8930        19.8610          85.03          77.46           8.65
      8931        19.8630          75.69          77.44           8.09
      8932        19.8650          75.28          77.43           7.97
      8933        19.8670          83.49          77.41           8.45
      8934        19.8690          67.23          77.39           7.58
      8935        19.8710          93.54          77.38           9.02
      8936        19.8730          84.98          77.36           8.56
      8937        19.8750          83.46          77.34           8.42
      8938        19.8770          77.78          77.33           8.23
      8939        19.8790          78.92          77.31           8.35
      8940        19.8810          66.32          77.29           7.52
      8941        19.8830          79.72          77.28           8.22
      8942        19.8850          66.22          77.26           7.43
      8943        19.8870          82.45          77.24           8.47
      8944        19.8890          99.00          77.22           9.26
      8945        19.8910          97.37          77.21           9.08
      8946        19.8930          82.48          77.19           8.42
      8947        19.8950          77.05          77.17           8.14
      8948        19.8970          82.04          77.16           8.36
      8949        19.8990          70.00          77.14           7.72
      8950        19.9010          80.02          77.12           8.22
      8951        19.9030          70.77          77.10           7.80
      8952        19.9050          74.35          77.09           7.99
      8953        19.9070          72.30          77.07           7.87
      8954        19.9090          76.23          77.05           8.11
      8955        19.9110          78.92          77.03           8.34
      8956        19.9130          83.06          77.01           8.54
      8957        19.9150          73.79          76.99           7.94
      8958        19.9170          75.34          76.98           8.05
      8959        19.9190          63.48          76.96           7.43
      8960        19.9210          72.24          76.94           7.84
      8961        19.9230          78.23          76.92           8.26
      8962        19.9250          76.79          76.91           8.15
      8963        19.9270          68.75          76.89           7.69
      8964        19.9290          83.86          76.87           8.51
      8965        19.9310          86.70          76.85           8.58
      8966        19.9330          74.11          76.84           7.89
      8967        19.9350          74.96          76.82           8.07
      8968        19.9370          84.89          76.80           8.63
      8969        19.9390          77.89          76.78           8.24
      8970        19.9410          82.08          76.76           8.48
      8971        19.9430          80.66          76.75           8.36
      8972        19.9450          67.26          76.73           7.57
      8973        19.9470          76.66          76.71           8.04
      8974        19.9490          82.19          76.69           8.41
      8975        19.9510          72.62          76.67           7.88
      8976        19.9530          70.91          76.65           7.86
      8977        19.9550          68.18          76.64           7.67
      8978        19.9570          83.93          76.62           8.48
      8979        19.9590          77.72          76.60           8.18
      8980        19.9610          88.23          76.58           8.70
      8981        19.9630          80.92          76.56           8.29
      8982        19.9650          75.30          76.54           8.10
      8983        19.9670          79.13          76.53           8.27
      8984        19.9690          69.45          76.51           7.72
      8985        19.9710          74.90          76.49           8.11
      8986        19.9730          78.13          76.47           8.18
      8987        19.9750          65.92          76.45           7.43
      8988        19.9770          64.40          76.43           7.53
      8989        19.9790          67.56          76.41           7.60
      8990        19.9810          86.33          76.40           8.64
      8991        19.9830          61.41          76.38           7.28
      8992        19.9850          76.93          76.36           8.13
      8993        19.9870          67.06          76.34           7.57
      8994        19.9890          66.53          76.32           7.65
      8995        19.9910          56.99          76.30           7.00
      8996        19.9930          74.22          76.28           7.97
      8997        19.9950          80.13          76.26           8.24
      8998        19.9970          70.00          76.24           7.73
      8999        19.9990          64.99          76.22          11.18
      9000        20.0010          68.44          76.21           7.94
      9001        20.0030          75.84          76.19           8.39
      9002        20.0050          73.28          76.17           8.19
      9003        20.0070          84.56          76.15           8.81
      9004        20.0090          85.40          76.13           8.86
      9005        20.0110          68.91          76.11           8.00
      9006        20.0130          84.13          76.09           8.83
      9007        20.0150          84.03          76.07           8.81
      9008        20.0170          77.57          76.05           8.46
      9009        20.0190          71.64          76.03           8.12
      9010        20.0210          79.54          76.01           8.58
      9011        20.0230          73.56          75.99           8.24
      9012        20.0250          77.04          75.97           8.43
      9013        20.0270          82.02          75.95           8.73
      9014        20.0290          74.58          75.93           8.32
      9015        20.0310          67.85          75.91           7.93
      9016        20.0330          65.92          75.89           7.80
      9017        20.0350          82.03          75.87           8.71
      9018        20.0370          93.34          75.85           9.31
      9019        20.0390          82.27          75.83           8.72
      9020        20.0410          77.92          75.81           8.48
      9021        20.0430          81.96          75.79           8.72
      9022        20.0450          68.34          75.77           7.94
      9023        20.0470          71.86          75.75           8.17
      9024        20.0490          71.83          75.73           8.16
      9025        20.0510          74.72          75.71           8.30
      9026        20.0530          91.41          75.69           9.19
      9027        20.0550          89.06          75.67           9.05
      9028        20.0570          87.45          75.65           8.99
      9029        20.0590          77.08          75.63           8.45
      9030        20.0610          69.32          75.61           8.00
      9031        20.0630          71.48          75.59           8.13
      9032        20.0650          75.17          75.57           8.34
      9033        20.0670          76.44          75.55           8.40
      9034        20.0690          83.39          75.53           8.79
      9035        20.0710          89.89          75.51           9.14
      9036        20.0730          64.34          75.49           7.71
      9037        20.0750          62.71          75.47           7.62
      9038        20.0770          71.70          75.45           8.15
      9039        20.0790          75.98          75.43           8.35
      9040        20.0810          74.89          75.41           8.28
      9041        20.0830          69.57          75.39           8.03
      9042        20.0850          71.33          75.37           8.11
      9043        20.0870          74.47          75.34           8.30
      9044        20.0890          82.29          75.32           8.69
      9045        20.0910          73.04          75.30           8.14
      9046        20.0930          74.80          75.28           8.32
      9047        20.0950          70.05          75.26           8.04
      9048        20.0970          71.97          75.24           8.17
      9049        20.0990          70.65          75.22           8.09
      9050        20.1010          77.39          75.20           8.46
      9051        20.1030          78.51          75.18           8.52
      9052        20.1050          65.34          75.16           7.75
      9053        20.1070          75.53          75.13           8.36
      9054        20.1090          67.15          75.11           7.86
      9055        20.1110          67.51          75.09           7.88
      9056        20.1130          81.31          75.07           8.67
      9057        20.1150          78.15          75.05           8.49
      9058        20.1170          71.91          75.03           8.16
      9059        20.1190          62.37          75.01           7.59
      9060        20.1210          64.90          74.99           7.74
      9061        20.1230          69.42          74.96           8.04
      9062        20.1250          71.88          74.94           8.14
      9063        20.1270          81.30          74.92           8.70
      9064        20.1290          79.73          74.90           8.59
      9065        20.1310          73.78          74.88           8.24
      9066        20.1330          77.21          74.86           8.47
      9067        20.1350          72.50          74.83           8.20
      9068        20.1370          75.41          74.81           8.36
      9069        20.1390          68.38          74.82           7.95
      9070        20.1410          81.14          74.80           8.68
      9071        20.1430          82.67          74.78           8.76
      9072        20.1450          75.62          74.75           8.36
      9073        20.1470          80.49          74.73           8.64
      9074        20.1490          76.34          74.71           8.40
      9075        20.1510          79.14          74.69           8.51
      9076        20.1530          85.70          74.67           8.88
      9077        20.1550          81.11          74.65           8.65
      9078        20.1570          87.20          74.63           8.98
      9079        20.1590          86.49          74.60           8.95
      9080        20.1610          70.56          74.58           8.07
      9081        20.1630          79.02          74.56           8.56
      9082        20.1650          87.50          74.54           9.01
      9083        20.1670          70.67          74.52           8.07
      9084        20.1690          79.52          74.50           8.60
      9085        20.1710          70.89          74.47           8.12
      9086        20.1730          71.31          74.45           8.12
      9087        20.1750          83.24          74.43           8.79
      9088        20.1770          78.36          74.41           8.53
      9089        20.1790          75.89          74.39           8.40
      9090        20.1810          70.13          74.37           8.06
      9091        20.1830          68.01          74.34           7.92
      9092        20.1850          76.71          74.32           8.43
      9093        20.1870          72.66          74.30           8.18
      9094        20.1890          70.94          74.28           8.07
      9095        20.1910          71.23          74.26           8.09
      9096        20.1930          82.83          74.24           8.76
      9097        20.1950          67.79          74.21           7.91
      9098        20.1970          67.73          74.19           7.92
      9099        20.1990          70.17          74.17           8.04
      9100        20.2010          82.71          74.15           8.77
      9101        20.2030          79.28          74.13           8.58
      9102        20.2050          75.45          74.11           8.36
      9103        20.2070          77.41          74.08           8.45
      9104        20.2090          85.29          74.06           8.89
      9105        20.2110          76.37          74.04           8.39
      9106        20.2130          71.46          74.02           8.11
      9107        20.2150          74.01          74.00           8.28
      9108        20.2170          70.50          73.97           8.09
      9109        20.2190          69.37          73.95           8.01
      9110        20.2210          67.26          73.93           7.87
      9111        20.2230          68.59          73.91           7.98
      9112        20.2250          68.25          73.89           7.98
      9113        20.2270          74.35          73.87           8.32
      9114        20.2290          69.01          73.84           8.00
      9115        20.2310          69.22          73.82           8.02
      9116        20.2330          68.86          73.80           8.01
      9117        20.2350          74.45          73.78           8.27
      9118        20.2370          83.50          73.76           8.78
      9119        20.2390          81.59          73.74           8.70
      9120        20.2410          88.32          73.71           9.05
      9121        20.2430          89.07          73.69           9.09
      9122        20.2450          83.04          73.67           8.77
      9123        20.2470          76.25          73.65           8.40
      9124        20.2490          69.32          73.63           7.99
      9125        20.2510          75.95          73.61           8.38
      9126        20.2530          70.49          73.59           8.08
      9127        20.2550          71.29          73.57           8.13
      9128        20.2570          75.66          73.55           8.35
      9129        20.2590          76.36          73.53           8.39
      9130        20.2610          77.35          73.50           8.46
      9131        20.2630          79.11          73.48           8.56
      9132        20.2650          69.62          73.46           8.01
      9133        20.2670          62.34          73.44           7.63
      9134        20.2690          76.35          73.42           8.43
      9135        20.2710          76.47          73.40           8.40
      9136        20.2730          65.52          73.38           7.76
      9137        20.2750          73.52          73.36           8.24
      9138        20.2770          65.46          73.34           7.75
      9139        20.2790          74.03          73.33           8.27
      9140        20.2810          62.07          73.31           7.55
      9141        20.2830          64.57          73.29           7.77
      9142        20.2850          65.60          73.27           7.81
      9143        20.2870          68.51          73.25           7.97
      9144        20.2890          78.40          73.23           8.52
      9145        20.2910          69.69          73.22           8.01
      9146        20.2930          73.51          73.20           8.26
      9147        20.2950          70.06          73.18           8.06
      9148        20.2970          75.41          73.17           8.38
      9149        20.2990          78.50          73.15           8.51
      9150        20.3010          73.43          73.14           8.21
      9151        20.3030          75.27          73.12           8.36
      9152        20.3050          64.54          73.11           7.72
      9153        20.3070          70.17          73.10           8.06
      9154        20.3090          68.20          73.08           7.96
      9155        20.3110          73.66          73.07           8.24
      9156        20.3130          70.09          73.06           8.03
      9157        20.3150          76.42          73.05           8.41
      9158        20.3170          77.95          73.04           8.50
      9159        20.3190          72.37          73.04           8.19
      9160        20.3210          63.96          73.03           7.66
      9161        20.3230          76.78          73.03           8.44
      9162        20.3250          82.60          73.03           8.72
      9163        20.3270          76.66          73.03           8.39
      9164        20.3290          69.78          73.03           8.04
      9165        20.3310          73.31          73.04           8.24
      9166        20.3330          77.84          73.05           8.49
      9167        20.3350          73.86          73.06           8.26
      9168        20.3370          73.97          73.08           8.26
      9169        20.3390          73.12          73.10           8.21
      9170        20.3410          70.89          73.13           8.11
      9171        20.3430          59.18          73.17           7.41
      9172        20.3450          71.29          73.21           8.11
      9173        20.3470          72.81          73.26           8.21
      9174        20.3490          76.15          73.32           8.42
      9175        20.3510          71.02          73.40           8.10
      9176        20.3530          54.02          73.49           7.05
      9177        20.3550          56.11          73.60           7.19
      9178        20.3570          77.04          73.74           8.46
      9179        20.3590          68.11          73.91           7.94
      9180        20.3610          71.43          74.11           8.08
      9181        20.3630          70.52          74.37           8.01
      9182        20.3650          79.53          74.68           8.59
      9183        20.3670          80.28          75.08           8.63
      9184        20.3690          72.76          75.61           8.20
      9185        20.3710          86.79          76.32           8.91
      9186        20.3730          82.04          77.34           8.62
      9187        20.3750          99.98          78.97           9.64
      9188        20.3770          84.54          81.71           8.88
      9189        20.3790          79.88          86.40           8.62
      9190        20.3810          92.93          94.07           9.29
      9191        20.3830          96.83         105.58           9.48
      9192        20.3850         125.20         120.88          10.67
      9193        20.3870         195.95         137.91          13.46
      9194        20.3890         202.11         151.49          13.68
      9195        20.3910         142.68         154.24          11.42
      9196        20.3930         105.62         144.26           9.91
      9197        20.3950          99.39         127.75           9.61
      9198        20.3970          90.11         111.29           9.13
      9199        20.3990          78.86          98.08           8.52
      9200        20.4010          70.40          88.86           8.05
      9201        20.4030          64.97          83.02           7.71
      9202        20.4050          77.11          79.55           8.42
      9203        20.4070          74.03          77.49           8.25
      9204        20.4090          76.13          76.21           8.37
      9205        20.4110          76.08          75.34           8.36
      9206        20.4130          82.76          74.70           8.73
      9207        20.4150          77.89          74.21           8.46
      9208        20.4170          77.85          73.81           8.47
      9209        20.4190          86.26          73.48           8.93
      9210        20.4210          74.04          73.20           8.26
      9211        20.4230          73.56          72.97           8.25
      9212        20.4250          68.12          72.77           7.93
      9213        20.4270          65.26          72.60           7.76
      9214        20.4290          64.94          72.45           7.72
      9215        20.4310          75.34          72.31           8.34
      9216        20.4330          67.68          72.19           7.91
      9217        20.4350          65.26          72.09           7.76
      9218        20.4370          81.31          71.99           8.67
      9219        20.4390          83.33          71.90           8.77
      9220        20.4410          72.58          71.82           8.17
      9221        20.4430          78.19          71.74           8.51
      9222        20.4450          72.40          71.67           8.16
      9223        20.4470          79.31          71.61           8.55
      9224        20.4490          80.19          71.54           8.61
      9225        20.4510          66.45          71.48           7.83
      9226        20.4530          75.80          71.43           8.35
      9227        20.4550          62.66          71.38           7.57
      9228        20.4570          54.76          71.32           7.07
      9229        20.4590          62.66          71.28           7.64
      9230        20.4610          66.28          71.23           7.81
      9231        20.4630          70.27          71.18           8.05
      9232        20.4650          60.47          71.14           7.48
      9233        20.4670          76.42          71.10           8.42
      9234        20.4690          62.71          71.06           7.61
      9235        20.4710          64.93          71.02           7.75
      9236        20.4730          60.41          70.98           7.47
      9237        20.4750          59.98          70.94           7.44
      9238        20.4770          63.56          70.90           7.66
      9239        20.4790          72.48          70.86           8.20
      9240        20.4810          79.03          70.83           8.52
      9241        20.4830          74.56          70.79           8.27
      9242        20.4850          56.42          70.77           7.21
      9243        20.4870          67.26          70.73           7.87
      9244        20.4890          82.11          70.70           8.71
      9245        20.4910          64.24          70.66           7.68
      9246        20.4930          70.05          70.63           8.02
      9247        20.4950          79.70          70.60           8.57
      9248        20.4970          69.68          70.57           8.00
      9249        20.4990          78.24          70.53           8.51
      9250        20.5010          83.26          70.50           8.76
      9251        20.5030          78.51          70.47           8.49
      9252        20.5050          82.41          70.44           8.74
      9253        20.5070          72.26          70.41           8.18
      9254        20.5090          73.41          70.38           8.23
      9255        20.5110          64.81          70.35           7.70
      9256        20.5130          66.19          70.32           7.80
      9257        20.5150          62.76          70.29           7.59
      9258        20.5170          69.53          70.25           8.00
      9259        20.5190          66.65          70.22           7.84
      9260        20.5210          63.51          70.19           7.67
      9261        20.5230          60.06          70.17           7.46
      9262        20.5250          63.48          70.14           7.63
      9263        20.5270          64.44          70.11           7.70
      9264        20.5290          57.49          70.08           7.28
      9265        20.5310          59.80          70.05           7.41
      9266        20.5330          67.95          70.02           7.92
      9267        20.5350          69.16          69.99           8.00
      9268        20.5370          64.41          69.96           7.71
      9269        20.5390          71.11          69.93           8.09
      9270        20.5410          72.77          69.90           8.20
      9271        20.5430          71.41          69.87           8.10
      9272        20.5450          68.81          69.84           7.96
      9273        20.5470          65.57          69.82           7.78
      9274        20.5490          69.87          69.79           8.03
      9275        20.5510          75.30          69.76           8.35
      9276        20.5530          70.31          69.73           8.08
      9277        20.5550          66.78          69.70           7.81
      9278        20.5570          66.07          69.67           7.78
      9279        20.5590          70.96          69.65           8.07
      9280        20.5610          69.49          69.62           7.98
      9281        20.5630          71.03          69.59           8.09
      9282        20.5650          66.82          69.56           7.83
      9283        20.5670          60.06          69.53           7.41
      9284        20.5690          68.73          69.50           7.97
      9285        20.5710          67.94          69.48           7.95
      9286        20.5730          66.87          69.45           7.84
      9287        20.5750          74.23          69.42           8.28
      9288        20.5770          70.23          69.39           8.06
      9289        20.5790          71.81          69.37           8.13
      9290        20.5810          65.38          69.34           7.74
      9291        20.5830          64.25          69.31           7.67
      9292        20.5850          67.62          69.28           7.88
      9293        20.5870          66.83          69.25           7.86
      9294        20.5890          71.44          69.23           8.10
      9295        20.5910          73.66          69.20           8.23
      9296        20.5930          71.26          69.17           8.12
      9297        20.5950          77.90          69.14           8.50
      9298        20.5970          78.21          69.12           8.51
      9299        20.5990          70.18          69.09           8.04
      9300        20.6010          64.38          69.06           7.68
      9301        20.6030          63.44          69.04           7.62
      9302        20.6050          73.97          69.01           8.24
      9303        20.6070          73.95          68.98           8.25
      9304        20.6090          79.92          68.95           8.60
      9305        20.6110          75.51          68.93           8.34
      9306        20.6130          81.18          68.90           8.68
      9307        20.6150          69.22          68.87           7.99
      9308        20.6170          65.94          68.85           7.80
      9309        20.6190          67.01          68.82           7.86
      9310        20.6210          57.68          68.79           7.27
      9311        20.6230          61.31          68.77           7.52
      9312        20.6250          49.93          68.74           6.78
      9313        20.6270          66.17          68.71           7.83
      9314        20.6290          71.40          68.69           8.12
      9315        20.6310          67.80          68.66           7.88
      9316        20.6330          63.73          68.63           7.64
      9317        20.6350          61.89          68.61           7.49
      9318        20.6370          67.20          68.58           7.84
      9319        20.6390          61.41          68.56           7.54
      9320        20.6410          70.97          68.53           8.08
      9321        20.6430          71.38          68.50           8.11
      9322        20.6450          76.91          68.45           8.45
      9323        20.6470          80.43          68.43           8.64
      9324        20.6490          78.37          68.40           8.51
      9325        20.6510          63.13          68.38           7.61
      9326        20.6530          72.03          68.35           8.17
      9327        20.6550          67.88          68.33           7.92
      9328        20.6570          70.42          68.31           8.08
      9329        20.6590          62.64          68.28           7.61
      9330        20.6610          63.90          68.26           7.66
      9331        20.6630          72.61          68.24           8.17
      9332        20.6650          68.24          68.21           7.90
      9333        20.6670          66.13          68.19           7.76
      9334        20.6690          73.65          68.17           8.28
      9335        20.6710          63.05          68.15           7.61
      9336        20.6730          81.04          68.13           8.66
      9337        20.6750          81.29          68.11           8.67
      9338        20.6770          64.93          68.09           7.73
      9339        20.6790          68.62          68.07           7.95
      9340        20.6810          61.05          68.05           7.49
      9341        20.6830          63.75          68.04           7.66
      9342        20.6850          60.14          68.02           7.44
      9343        20.6870          65.75          68.01           7.74
      9344        20.6890          81.55          67.99           8.68
      9345        20.6910          69.83          67.98           8.04
      9346        20.6930          73.42          67.97           8.25
      9347        20.6950          83.10          67.97           8.76
      9348        20.6970          68.82          67.96           7.95
      9349        20.6990          77.59          67.96           8.46
      9350        20.7010          65.31          67.97           7.71
      9351        20.7030          61.50          67.97           7.47
      9352        20.7050          64.96          67.99           7.75
      9353        20.7070          74.02          68.01           8.28
      9354        20.7090          70.80          68.03           8.09
      9355        20.7110          74.95          68.07           8.29
      9356        20.7130          63.52          68.13           7.61
      9357        20.7150          70.79          68.19           8.09
      9358        20.7170          74.66          68.28           8.28
      9359        20.7190          74.27          68.40           8.25
      9360        20.7210          66.01          68.56           7.77
      9361        20.7230          60.54          68.78           7.47
      9362        20.7250          66.59          69.11           7.85
      9363        20.7270          67.85          69.64           7.86
      9364        20.7290          71.60          70.52           8.09
      9365        20.7310          60.77          72.04           7.47
      9366        20.7330          71.29          74.54           8.09
      9367        20.7350          78.54          78.31           8.51
      9368        20.7370          82.71          83.39           8.72
      9369        20.7390          91.64          89.21           9.17
      9370        20.7410         101.43          94.23           9.67
      9371        20.7430         108.21          96.02           9.99
      9372        20.7450         119.05          93.37          10.50
      9373        20.7470          87.65          87.97           9.02
      9374        20.7490          80.37          82.15           8.63
      9375        20.7510          84.56          77.25           8.83
      9376        20.7530          68.97          73.69           7.95
      9377        20.7550          68.11          71.35           7.94
      9378        20.7570          77.87          69.92           8.50
      9379        20.7590          72.15          69.07           8.17
      9380        20.7610          76.92          68.53           8.42
      9381        20.7630          57.47          68.18           7.26
      9382        20.7650          56.38          67.91           7.17
      9383        20.7670          74.26          67.71           8.29
      9384        20.7690          63.03          67.54           7.61
      9385        20.7710          69.25          67.40           8.00
      9386        20.7730          74.83          67.28           8.35
      9387        20.7750          71.66          67.18           8.15
      9388        20.7770          75.26          67.08           8.31
      9389        20.7790          62.10          67.00           7.51
      9390        20.7810          65.49          66.93           7.76
      9391        20.7830          65.74          66.86           7.76
      9392        20.7850          72.97          66.80           8.20
      9393        20.7870          64.68          66.74           7.71
      9394        20.7890          55.57          66.69           7.11
      9395        20.7910          65.33          66.64           7.76
      9396        20.7930          66.45          66.59           7.84
      9397        20.7950          66.35          66.54           7.80
      9398        20.7970          74.86          66.50           8.31
      9399        20.7990          64.18          66.46           7.67
      9400        20.8010          80.86          66.42           8.64
      9401        20.8030          73.38          66.38           8.22
      9402        20.8050          54.74          66.34           7.12
      9403        20.8070          56.54          66.30           7.21
      9404        20.8090          58.36          66.26           7.32
      9405        20.8110          65.98          66.23           7.81
      9406        20.8130          68.21          66.19           7.91
      9407        20.8150          65.68          66.16           7.76
      9408        20.8170          61.73          66.12           7.57
      9409        20.8190          53.27          66.09           7.01
      9410        20.8210          64.53          66.06           7.68
      9411        20.8230          67.55          66.03           7.85
      9412        20.8250          68.84          65.99           7.95
      9413        20.8270          70.93          65.96           8.10
      9414        20.8290          70.45          65.93           8.05
      9415        20.8310          61.72          65.90           7.52
      9416        20.8330          59.56          65.87           7.41
      9417        20.8350          64.01          65.84           7.65
      9418        20.8370          66.31          65.81           7.79
      9419        20.8390          71.09          65.78           8.10
      9420        20.8410          75.07          65.75           8.30
      9421        20.8430          71.44          65.72           8.10
      9422        20.8450          66.96          65.69           7.82
      9423        20.8470          59.00          65.66           7.32
      9424        20.8490          61.79          65.63           7.53
      9425        20.8510          58.81          65.60           7.38
      9426        20.8530          62.49          65.57           7.60
      9427        20.8550          64.30          65.54           7.70
      9428        20.8570          64.13          65.51           7.69
      9429        20.8590          62.99          65.48           7.63
      9430        20.8610          64.78          65.46           7.72
      9431        20.8630          61.51          65.43           7.52
      9432        20.8650          51.57          65.40           6.89
      9433        20.8670          52.08          65.37           6.94
      9434        20.8690          66.44          65.34           7.84
      9435        20.8710          70.67          65.31           8.07
      9436        20.8730          63.73          65.28           7.66
      9437        20.8750          65.56          65.26           7.74
      9438        20.8770          77.16          65.23           8.43
      9439        20.8790          62.80          65.20           7.58
      9440        20.8810          54.74          65.17           7.12
      9441        20.8830          56.81          65.14           7.22
      9442        20.8850          69.22          65.12           8.01
      9443        20.8870          62.24          65.09           7.59
      9444        20.8890          63.12          65.06           7.65
      9445        20.8910          61.75          65.03           7.56
      9446        20.8930          62.29          65.01           7.57
      9447        20.8950          67.28          64.98           7.88
      9448        20.8970          58.40          64.95           7.34
      9449        20.8990          57.18          64.92           7.25
      9450        20.9010          60.36          64.90           7.46
      9451        20.9030          63.98          64.87           7.66
      9452        20.9050          66.96          64.84           7.84
      9453        20.9070          72.82          64.81           8.18
      9454        20.9090          72.50          64.79           8.16
      9455        20.9110          59.03          64.76           7.35
      9456        20.9130          62.51          64.73           7.61
      9457        20.9150          64.95          64.70           7.68
      9458        20.9170          62.54          64.68           7.55
      9459        20.9190          63.10          64.65           7.63
      9460        20.9210          65.54          64.62           7.79
      9461        20.9230          58.60          64.60           7.37
      9462        20.9250          64.53          64.57           7.70
      9463        20.9270          64.79          64.54           7.71
      9464        20.9290          75.14          64.51           8.33
      9465        20.9310          70.24          64.49           8.04
      9466        20.9330          69.11          64.46           7.96
      9467        20.9350          75.29          64.43           8.34
      9468        20.9370          70.25          64.41           8.03
      9469        20.9390          66.18          64.38           7.78
      9470        20.9410          69.22          64.35           7.98
      9471        20.9430          66.70          64.33           7.84
      9472        20.9450          64.99          64.30           7.71
      9473        20.9470          66.83          64.27           7.84
      9474        20.9490          73.12          64.25           8.16
      9475        20.9510          65.39          64.22           7.69
      9476        20.9530          57.75          64.19           7.28
      9477        20.9550          67.57          64.17           7.89
      9478        20.9570          68.05          64.14           7.93
      9479        20.9590          65.91          64.11           7.82
      9480        20.9610          71.14          64.09           8.11
      9481        20.9630          66.24          64.06           7.81
      9482        20.9650          70.61          64.03           8.09
      9483        20.9670          61.79          64.01           7.50
      9484        20.9690          63.79          63.98           7.60
      9485        20.9710          75.00          63.95           8.32
      9486        20.9730          66.78          63.93           7.82
      9487        20.9750          63.34          63.90           7.60
      9488        20.9770          68.85          63.88           7.97
      9489        20.9790          68.74          63.85           7.97
      9490        20.9810          62.20          63.82           7.57
      9491        20.9830          60.23          63.80           7.43
      9492        20.9850          58.80          63.77           7.34
      9493        20.9870          56.74          63.74           7.24
      9494        20.9890          52.02          63.72           6.91
      9495        20.9910          61.69          63.69           7.51
      9496        20.9930          70.93          63.67           8.09
      9497        20.9950          69.17          63.64           7.99
      9498        20.9970          60.16          63.61           7.44
      9499        20.9990          57.02          63.59           7.24
      9500        21.0010          64.38          63.55           7.71
      9501        21.0030          57.35          63.53           7.27
      9502        21.0050          56.45          63.50           7.20
      9503        21.0070          55.59          63.48           7.14
      9504        21.0090          66.33          63.45           7.78
      9505        21.0110          66.45          63.42           7.78
      9506        21.0130          63.82          63.40           7.67
      9507        21.0150          55.80          63.37           7.17
      9508        21.0170          55.62          63.35           7.15
      9509        21.0190          64.38          63.32           7.70
      9510        21.0210          75.06          63.30           8.31
      9511        21.0230          77.82          63.27           8.46
      9512        21.0250          57.39          63.25           7.26
      9513        21.0270          54.49          63.22           7.09
      9514        21.0290          55.54          63.19           7.13
      9515        21.0310          63.06          63.17           7.62
      9516        21.0330          53.18          63.14           7.00
      9517        21.0350          60.07          63.12           7.45
      9518        21.0370          61.33          63.09           7.50
      9519        21.0390          64.30          63.07           7.69
      9520        21.0410          56.41          63.04           7.21
      9521        21.0430          67.94          63.02           7.89
      9522        21.0450          70.00          62.99           8.00
      9523        21.0470          64.55          62.97           7.66
      9524        21.0490          72.74          62.94           8.19
      9525        21.0510          59.87          62.92           7.41
      9526        21.0530          61.70          62.89           7.53
      9527        21.0550          65.53          62.87           7.74
      9528        21.0570          74.84          62.84           8.31
      9529        21.0590          60.37          62.82           7.45
      9530        21.0610          57.40          62.79           7.24
      9531        21.0630          61.04          62.77           7.49
      9532        21.0650          64.84          62.74           7.73
      9533        21.0670          59.18          62.72           7.37
      9534        21.0690          55.57          62.69           7.13
      9535        21.0710          68.08          62.67           7.95
      9536        21.0730          67.41          62.64           7.91
      9537        21.0750          70.48          62.62           8.04
      9538        21.0770          68.77          62.59           7.93
      9539        21.0790          57.24          62.57           7.22
      9540        21.0810          66.89          62.55           7.86
      9541        21.0830          58.81          62.52           7.35
      9542        21.0850          65.38          62.50           7.76
      9543        21.0870          68.35          62.47           7.92
      9544        21.0890          60.15          62.45           7.42
      9545        21.0910          60.15          62.42           7.43
      9546        21.0930          70.66          62.40           8.10
      9547        21.0950          58.83          62.37           7.38
      9548        21.0970          61.17          62.35           7.53
      9549        21.0990          73.76          62.33           8.21
      9550        21.1010          58.34          62.30           7.29
      9551        21.1030          60.17          62.28           7.44
      9552        21.1050          61.87          62.25           7.55
      9553        21.1070          52.06          62.23           6.91
      9554        21.1090          55.80          62.21           7.19
      9555        21.1110          62.34          62.18           7.58
      9556        21.1130          53.45          62.16           7.01
      9557        21.1150          59.85          62.13           7.37
      9558        21.1170          71.80          62.11           8.12
      9559        21.1190          62.39          62.09           7.57
      9560        21.1210          68.11          62.06           7.93
      9561        21.1230          69.49          62.04           8.01
      9562        21.1250          56.68          62.01           7.22
      9563        21.1270          61.55          61.99           7.53
      9564        21.1290          54.82          61.97           7.10
      9565        21.1310          59.78          61.94           7.38
      9566        21.1330          64.87          61.92           7.72
      9567        21.1350          65.45          61.90           7.73
      9568        21.1370          57.83          61.87           7.24
      9569        21.1390          68.18          61.85           7.88
      9570        21.1410          58.58          61.83           7.29
      9571        21.1430          57.85          61.80           7.31
      9572        21.1450          66.21          61.78           7.78
      9573        21.1470          67.85          61.75           7.89
      9574        21.1490          60.37          61.73           7.46
      9575        21.1510          58.07          61.71           7.31
      9576        21.1530          63.23          61.69           7.62
      9577        21.1550          66.14          61.66           7.81
      9578        21.1570          62.20          61.64           7.58
      9579        21.1590          62.89          61.62           7.61
      9580        21.1610          55.65          61.59           7.14
      9581        21.1630          63.71          61.57           7.64
      9582        21.1650          67.12          61.55           7.83
      9583        21.1670          75.15          61.53           8.31
      9584        21.1690          76.24          61.51           8.39
      9585        21.1710          66.94          61.48           7.84
      9586        21.1730          58.35          61.46           7.31
      9587        21.1750          62.29          61.44           7.56
      9588        21.1770          63.54          61.42           7.64
      9589        21.1790          60.93          61.39           7.46
      9590        21.1810          55.69          61.37           7.09
      9591        21.1830          67.29          61.35           7.86
      9592        21.1850          67.11          61.33           7.84
      9593        21.1870          66.54          61.30           7.81
      9594        21.1890          59.68          61.28           7.43
      9595        21.1910          62.07          61.26           7.56
      9596        21.1930          63.05          61.24           7.62
      9597        21.1950          54.16          61.21           7.06
      9598        21.1970          61.77          61.19           7.54
      9599        21.1990          51.11          61.17           6.83
      9600        21.2010          63.88          61.15           7.68
      9601        21.2030          58.27          61.12           7.34
      9602        21.2050          62.82          61.10           7.62
      9603        21.2070          53.05          61.08           6.99
      9604        21.2090          60.98          61.06           7.51
      9605        21.2110          68.06          61.04           7.91
      9606        21.2130          63.93          61.02           7.65
      9607        21.2150          50.46          60.99           6.78
      9608        21.2170          64.48          60.97           7.68
      9609        21.2190          57.93          60.95           7.24
      9610        21.2210          74.79          60.93           8.31
      9611        21.2230          71.87          60.91           8.14
      9612        21.2250          70.14          60.89           8.03
      9613        21.2270          66.83          60.86           7.83
      9614        21.2290          62.71          60.84           7.57
      9615        21.2310          60.98          60.82           7.46
      9616        21.2330          71.63          60.80           8.12
      9617        21.2350          63.78          60.78           7.65
      9618        21.2370          66.65          60.76           7.83
      9619        21.2390          57.16          60.74           7.23
      9620        21.2410          62.62          60.71           7.58
      9621        21.2430          61.45          60.69           7.51
      9622        21.2450          56.17          60.67           7.18
      9623        21.2470          56.32          60.65           7.21
      9624        21.2490          69.25          60.63           7.99
      9625        21.2510          65.47          60.61           7.76
      9626        21.2530          59.88          60.59           7.43
      9627        21.2550          64.43          60.57           7.71
      9628        21.2570          58.08          60.55           7.31
      9629        21.2590          60.35          60.53           7.46
      9630        21.2610          64.68          60.51           7.69
      9631        21.2630          48.99          60.49           6.67
      9632        21.2650          52.65          60.47           6.93
      9633        21.2670          61.79          60.45           7.55
      9634        21.2690          71.68          60.42           8.14
      9635        21.2710          64.77          60.40           7.72
      9636        21.2730          61.48          60.38           7.52
      9637        21.2750          60.54          60.36           7.46
      9638        21.2770          45.85          60.34           6.47
      9639        21.2790          46.72          60.32           6.51
      9640        21.2810          50.94          60.30           6.81
      9641        21.2830          59.44          60.28           7.37
      9642        21.2850          63.58          60.26           7.64
      9643        21.2870          59.89          60.24           7.43
      9644        21.2890          61.20          60.23           7.46
      9645        21.2910          74.41          60.21           8.28
      9646        21.2930          62.29          60.19           7.58
      9647        21.2950          56.89          60.17           7.23
      9648        21.2970          63.39          60.15           7.61
      9649        21.2990          69.79          60.13           8.01
      9650        21.3010          64.43          60.11           7.71
      9651        21.3030          49.33          60.09           6.72
      9652        21.3050          55.08          60.07           7.12
      9653        21.3070          59.97          60.05           7.45
      9654        21.3090          58.33          60.03           7.34
      9655        21.3110          62.56          60.01           7.56
      9656        21.3130          58.64          60.00           7.31
      9657        21.3150          59.29          59.98           7.39
      9658        21.3170          54.64          59.96           7.09
      9659        21.3190          67.91          59.94           7.88
      9660        21.3210          64.99          59.92           7.71
      9661        21.3230          62.62          59.90           7.61
      9662        21.3250          63.04          59.89           7.60
      9663        21.3270          65.16          59.87           7.74
      9664        21.3290          54.23          59.85           7.07
      9665        21.3310          55.35          59.83           7.13
      9666        21.3330          52.69          59.82           6.94
      9667        21.3350          57.84          59.80           7.29
      9668        21.3370          56.08          59.78           7.17
      9669        21.3390          61.37          59.76           7.53
      9670        21.3410          68.89          59.75           7.96
      9671        21.3430          70.31          59.73           8.05
      9672        21.3450          56.81          59.71           7.23
      9673        21.3470          66.83          59.70           7.84
      9674        21.3490          62.98          59.68           7.60
      9675        21.3510          57.14          59.67           7.23
      9676        21.3530          66.76          59.65           7.83
      9677        21.3550          55.89          59.64           7.13
      9678        21.3570          62.35          59.62           7.59
      9679        21.3590          56.88          59.61           7.21
      9680        21.3610          71.77          59.59           8.15
      9681        21.3630          58.98          59.58           7.38
      9682        21.3650          68.13          59.57           7.88
      9683        21.3670          69.35          59.56           7.97
      9684        21.3690          57.82          59.54           7.30
      9685        21.3710          54.02          59.53           7.02
      9686        21.3730          64.96          59.52           7.69
      9687        21.3750          68.72          59.51           7.93
      9688        21.3770          61.40          59.50           7.51
      9689        21.3790          63.77          59.50           7.65
      9690        21.3810          71.44          59.49           8.12
      9691        21.3830          58.09          59.49           7.30
      9692        21.3850          56.91          59.48           7.24
      9693        21.3870          58.28          59.48           7.32
      9694        21.3890          62.74          59.49           7.60
      9695        21.3910          61.18          59.49           7.48
      9696        21.3930          64.14          59.50           7.67
      9697        21.3950          52.91          59.51           6.96
      9698        21.3970          61.08          59.53           7.48
      9699        21.3990          60.57          59.55           7.45
      9700        21.4010          63.87          59.59           7.65
      9701        21.4030          53.90          59.63           7.01
      9702        21.4050          62.37          59.69           7.52
      9703        21.4070          73.95          59.76           8.24
      9704        21.4090          59.52          59.86           7.39
      9705        21.4110          52.23          60.01           6.91
      9706        21.4130          58.07          60.22           7.33
      9707        21.4150          61.06          60.56           7.49
      9708        21.4170          57.77          61.13           7.26
      9709        21.4190          63.10          62.09           7.61
      9710        21.4210          57.62          63.63           7.25
      9711        21.4230          66.60          65.91           7.82
      9712        21.4250          66.49          68.92           7.78
      9713        21.4270          78.92          72.34           8.52
      9714        21.4290          74.69          75.33           8.28
      9715        21.4310          79.82          76.55           8.55
      9716        21.4330          94.06          75.24           9.35
      9717        21.4350          82.15          72.20           8.71
      9718        21.4370          76.93          68.74           8.42
      9719        21.4390          74.96          65.71           8.29
      9720        21.4410          59.70          63.42           7.38
      9721        21.4430          61.63          61.86           7.53
      9722        21.4450          58.07          60.88           7.30
      9723        21.4470          67.62          60.28           7.89
      9724        21.4490          67.50          59.92           7.88
      9725        21.4510          53.42          59.67           7.01
      9726        21.4530          55.11          59.50           7.13
      9727        21.4550          57.83          59.37           7.29
      9728        21.4570          55.25          59.26           7.12
      9729        21.4590          54.20          59.17           7.05
      9730        21.4610          67.06          59.09           7.85
      9731        21.4630          61.12          59.03           7.48
      9732        21.4650          58.73          58.97           7.34
      9733        21.4670          60.21          58.92           7.44
      9734        21.4690          60.75          58.88           7.47
      9735        21.4710          58.48          58.83           7.31
      9736        21.4730          66.68          58.80           7.84
      9737        21.4750          64.55          58.76           7.70
      9738        21.4770          62.89          58.73           7.59
      9739        21.4790          61.38          58.70           7.51
      9740        21.4810          63.27          58.67           7.65
      9741        21.4830          65.99          58.65           7.79
      9742        21.4850          54.13          58.62           7.04
      9743        21.4870          52.07          58.60           6.91
      9744        21.4890          52.90          58.57           6.98
      9745        21.4910          58.56          58.55           7.30
      9746        21.4930          73.73          58.53           8.24
      9747        21.4950          68.10          58.51           7.92
      9748        21.4970          61.32          58.50           7.52
      9749        21.4990          63.02          58.48           7.62
      9750        21.5010          66.08          58.46           7.79
      9751        21.5030          59.41          58.44           7.38
      9752        21.5050          60.76          58.42           7.51
      9753        21.5070          61.57          58.40           7.52
      9754        21.5090          63.85          58.39           7.65
      9755        21.5110          60.00          58.37           7.40
      9756        21.5130          54.32          58.35           7.02
      9757        21.5150          62.80          58.34           7.58
      9758        21.5170          61.51          58.32           7.51
      9759        21.5190          61.19          58.30           7.51
      9760        21.5210          65.46          58.29           7.68
      9761        21.5230          56.86          58.27           7.16
      9762        21.5250          56.73          58.26           7.21
      9763        21.5270          65.99          58.24           7.80
      9764        21.5290          60.03          58.23           7.42
      9765        21.5310          62.49          58.21           7.62
      9766        21.5330          58.14          58.20           7.30
      9767        21.5350          57.30          58.18           7.24
      9768        21.5370          61.00          58.17           7.51
      9769        21.5390          73.53          58.15           8.23
      9770        21.5410          70.24          58.14           8.02
      9771        21.5430          66.67          58.13           7.81
      9772        21.5450          57.13          58.11           7.23
      9773        21.5470          55.55          58.10           7.15
      9774        21.5490          61.93          58.08           7.55
      9775        21.5510          56.89          58.07           7.22
      9776        21.5530          63.84          58.06           7.66
      9777        21.5550          59.98          58.04           7.41
      9778        21.5570          54.16          58.03           7.06
      9779        21.5590          58.88          58.02           7.37
      9780        21.5610          72.14          58.01           8.12
      9781        21.5630          57.27          57.99           7.20
      9782        21.5650          49.91          57.98           6.79
      9783        21.5670          49.70          57.97           6.78
      9784        21.5690          47.40          57.95           6.59
      9785        21.5710          52.40          57.94           6.89
      9786        21.5730          63.73          57.93           7.68
      9787        21.5750          60.17          57.92           7.46
      9788        21.5770          67.34          57.91           7.87
      9789        21.5790          59.60          57.89           7.39
      9790        21.5810          48.12          57.88           6.65
      9791        21.5830          53.36          57.87           6.99
      9792        21.5850          67.35          57.86           7.87
      9793        21.5870          55.92          57.85           7.16
      9794        21.5890          59.92          57.83           7.43
      9795        21.5910          61.66          57.82           7.53
      9796        21.5930          58.33          57.81           7.31
      9797        21.5950          55.29          57.80           7.11
      9798        21.5970          51.55          57.79           6.84
      9799        21.5990          66.96          57.78           7.83
      9800        21.6010          51.62          57.77           6.86
      9801        21.6030          62.37          57.76           7.60
      9802        21.6050          59.74          57.75           7.42
      9803        21.6070          50.54          57.73           6.80
      9804        21.6090          64.29          57.72           7.71
      9805        21.6110          54.29          57.71           7.06
      9806        21.6130          51.50          57.70           6.89
      9807        21.6150          56.25          57.69           7.16
      9808        21.6170          60.06          57.68           7.42
      9809        21.6190          53.76          57.67           7.03
      9810        21.6210          61.72          57.66           7.53
      9811        21.6230          57.69          57.65           7.27
      9812        21.6250          57.23          57.64           7.22
      9813        21.6270          60.72          57.63           7.45
      9814        21.6290          55.54          57.62           7.10
      9815        21.6310          59.37          57.61           7.35
      9816        21.6330          56.22          57.61           7.17
      9817        21.6350          61.04          57.60           7.49
      9818        21.6370          61.63          57.59           7.54
      9819        21.6390          52.86          57.58           6.99
      9820        21.6410          51.95          57.57           6.91
      9821        21.6430          61.54          57.56           7.49
      9822        21.6450          67.39          57.55           7.85
      9823        21.6470          71.20          57.54           8.10
      9824        21.6490          57.09          57.54           7.21
      9825        21.6510          52.98          57.53           6.92
      9826        21.6530          61.16          57.52           7.48
      9827        21.6550          63.48          57.51           7.62
      9828        21.6570          54.90          57.51           7.07
      9829        21.6590          57.62          57.50           7.27
      9830        21.6610          66.11          57.49           7.78
      9831        21.6630          60.24          57.48           7.42
      9832        21.6650          57.96          57.48           7.29
      9833        21.6670          62.30          57.47           7.58
      9834        21.6690          57.64          57.47           7.29
      9835        21.6710          59.13          57.46           7.37
      9836        21.6730          59.16          57.45           7.37
      9837        21.6750          57.86          57.45           7.31
      9838        21.6770          57.85          57.44           7.30
      9839        21.6790          64.82          57.44           7.72
      9840        21.6810          59.76          57.44           7.39
      9841        21.6830          53.35          57.43           6.95
      9842        21.6850          67.16          57.43           7.87
      9843        21.6870          58.43          57.43           7.34
      9844        21.6890          57.30          57.42           7.26
      9845        21.6910          63.09          57.42           7.61
      9846        21.6930          64.12          57.42           7.67
      9847        21.6950          62.26          57.42           7.56
      9848        21.6970          53.91          57.42           7.03
      9849        21.6990          62.68          57.42           7.62
      9850        21.7010          56.02          57.42           7.18
      9851        21.7030          53.41          57.42           7.01
      9852        21.7050          50.43          57.42           6.81
      9853        21.7070          57.59          57.43           7.29
      9854        21.7090          57.20          57.44           7.27
      9855        21.7110          63.34          57.45           7.66
      9856        21.7130          61.43          57.46           7.53
      9857        21.7150          59.88          57.47           7.42
      9858        21.7170          53.55          57.49           7.00
      9859        21.7190          56.86          57.50           7.23
      9860        21.7210          52.20          57.53           6.93
      9861        21.7230          59.35          57.55           7.42
      9862        21.7250          49.77          57.58           6.77
      9863        21.7270          47.27          57.62           6.58
      9864        21.7290          57.38          57.66           7.28
      9865        21.7310          58.47          57.71           7.31
      9866        21.7330          51.37          57.77           6.84
      9867        21.7350          59.15          57.85           7.37
      9868        21.7370          48.95          57.94           6.68
      9869        21.7390          53.57          58.05           6.93
      9870        21.7410          56.68          58.18           7.18
      9871        21.7430          53.85          58.35           7.01
      9872        21.7450          64.09          58.57           7.67
      9873        21.7470          62.73          58.87           7.60
      9874        21.7490          63.53          59.29           7.62
      9875        21.7510          67.21          59.96           7.85
      9876        21.7530          59.27          61.06           7.39
      9877        21.7550          60.38          62.87           7.39
      9878        21.7570          70.88          65.76           8.07
      9879        21.7590          62.37          70.02           7.59
      9880        21.7610          76.90          75.67           8.41
      9881        21.7630          94.96          82.19           9.34
      9882        21.7650         125.42          88.14          10.71
      9883        21.7670         133.33          91.09          11.07
      9884        21.7690         106.77          89.34           9.85
      9885        21.7710          60.74          83.94           7.39
      9886        21.7730          56.34          77.38           7.19
      9887        21.7750          52.97          71.39           6.95
      9888        21.7770          60.48          66.73           7.47
      9889        21.7790          66.79          63.47           7.82
      9890        21.7810          60.40          61.38           7.43
      9891        21.7830          59.92          60.11           7.42
      9892        21.7850          57.45          59.34           7.26
      9893        21.7870          57.38          58.84           7.26
      9894        21.7890          51.58          58.51           6.87
      9895        21.7910          57.57          58.26           7.27
      9896        21.7930          58.57          58.06           7.34
      9897        21.7950          56.02          57.91           7.19
      9898        21.7970          54.01          57.78           7.06
      9899        21.7990          58.83          57.67           7.34
      9900        21.8010          54.76          57.58           7.07
      9901        21.8030          58.30          57.51           7.33
      9902        21.8050          48.09          57.44           6.64
      9903        21.8070          52.68          57.38           6.95
      9904        21.8090          57.85          57.33           7.28
      9905        21.8110          52.64          57.29           6.90
      9906        21.8130          60.03          57.25           7.42
      9907        21.8150          49.56          57.21           6.77
      9908        21.8170          46.39          57.18           6.55
      9909        21.8190          48.66          57.15           6.65
      9910        21.8210          58.02          57.12           7.29
      9911        21.8230          62.42          57.11           7.56
      9912        21.8250          68.05          57.09           7.89
      9913        21.8270          61.01          57.07           7.46
      9914        21.8290          58.89          57.05           7.33
      9915        21.8310          54.99          57.03           7.07
      9916        21.8330          57.57          57.02           7.28
      9917        21.8350          66.46          57.00           7.84
      9918        21.8370          60.95          56.99           7.51
      9919        21.8390          55.98          56.98           7.19
      9920        21.8410          63.50          56.96           7.61
      9921        21.8430          50.61          56.95           6.78
      9922        21.8450          55.41          56.94           7.08
      9923        21.8470          71.52          56.93           8.13
      9924        21.8490          63.38          56.92           7.65
      9925        21.8510          54.84          56.91           7.14
      9926        21.8530          61.88          56.90           7.56
      9927        21.8550          62.69          56.90           7.60
      9928        21.8570          64.42          56.89           7.71
      9929        21.8590          67.11          56.88           7.84
      9930        21.8610          58.32          56.87           7.28
      9931        21.8630          61.22          56.86           7.49
      9932        21.8650          50.44          56.86           6.78
      9933        21.8670          54.67          56.85           7.08
      9934        21.8690          53.72          56.85           7.04
      9935        21.8710          47.34          56.84           6.60
      9936        21.8730          52.58          56.83           6.95
      9937        21.8750          61.56          56.83           7.52
      9938        21.8770          65.92          56.82           7.78
      9939        21.8790          60.78          56.82           7.47
      9940        21.8810          51.75          56.81           6.90
      9941        21.8830          57.57          56.81           7.24
      9942        21.8850          52.22          56.80           6.89
      9943        21.8870          51.39          56.80           6.89
      9944        21.8890          58.88          56.79           7.33
      9945        21.8910          65.65          56.79           7.76
      9946        21.8930          59.19          56.79           7.36
      9947        21.8950          70.86          56.78           8.09
      9948        21.8970          69.47          56.78           8.01
      9949        21.8990          54.94          56.78           7.11
      9950        21.9010          51.58          56.77           6.88
      9951        21.9030          60.63          56.77           7.46
      9952        21.9050          59.42          56.77           7.39
      9953        21.9070          56.56          56.76           7.23
      9954        21.9090          57.38          56.76           7.28
      9955        21.9110          58.13          56.76           7.32
      9956        21.9130          62.41          56.75           7.58
      9957        21.9150          67.90          56.75           7.91
      9958        21.9170          57.18          56.75           7.26
      9959        21.9190          57.68          56.75           7.29
      9960        21.9210          65.76          56.74           7.76
      9961        21.9230          65.63          56.74           7.75
      9962        21.9250          50.77          56.74           6.84
      9963        21.9270          56.38          56.74           7.20
      9964        21.9290          53.46          56.74           7.01
      9965        21.9310          46.97          56.73           6.57
      9966        21.9330          52.30          56.73           6.92
      9967        21.9350          61.64          56.73           7.51
      9968        21.9370          61.96          56.73           7.53
      9969        21.9390          55.69          56.73           7.13
      9970        21.9410          64.16          56.73           7.70
      9971        21.9430          58.63          56.73           7.34
      9972        21.9450          58.18          56.72           7.32
      9973        21.9470          61.97          56.72           7.56
      9974        21.9490          60.26          56.72           7.45
      9975        21.9510          54.04          56.72           7.07
      9976        21.9530          55.17          56.72           7.11
      9977        21.9550          52.06          56.72           6.89
      9978        21.9570          58.72          56.72           7.36
      9979        21.9590          56.74          56.72           7.23
      9980        21.9610          51.30          56.72           6.87
      9981        21.9630          55.73          56.72           7.13
      9982        21.9650          53.79          56.72           7.01
      9983        21.9670          54.19          56.72           7.06
      9984        21.9690          60.30          56.72           7.45
      9985        21.9710          58.47          56.72           7.33
      9986        21.9730          58.31          56.72           7.30
      9987        21.9750          60.92          56.72           7.47
      9988        21.9770          61.23          56.72           7.48
      9989        21.9790          53.98          56.72           7.00
      9990        21.9810          61.05          56.72           7.44
      9991        21.9830          67.62          56.73           7.88
      9992        21.9850          60.63          56.73           7.43
      9993        21.9870          62.87          56.73           7.57
      9994        21.9890          45.94          56.73           6.45
      9995        21.9910          64.73          56.73           7.70
      9996        21.9930          60.34          56.73           7.44
      9997        21.9950          55.70          56.74           7.15
      9998        21.9970          54.67          56.74           9.80
      9999        21.9990          65.76          56.74           7.69
     10000        22.0010          68.35          56.74           7.85
     10001        22.0030          65.15          56.75           7.67
     10002        22.0050          65.04          56.75           7.66
     10003        22.0070          59.59          56.76           7.34
     10004        22.0090          57.46          56.76           7.20
     10005        22.0110          69.02          56.76           7.88
     10006        22.0130          63.03          56.77           7.53
     10007        22.0150          61.32          56.77           7.43
     10008        22.0170          61.06          56.78           7.40
     10009        22.0190          48.06          56.78           6.57
     10010        22.0210          54.88          56.79           7.04
     10011        22.0230          56.29          56.80           7.12
     10012        22.0250          53.83          56.81           6.96
     10013        22.0270          50.91          56.81           6.79
     10014        22.0290          52.45          56.82           6.90
     10015        22.0310          55.50          56.83           7.08
     10016        22.0330          58.94          56.84           7.29
     10017        22.0350          66.27          56.85           7.73
     10018        22.0370          59.95          56.87           7.35
     10019        22.0390          57.98          56.88           7.22
     10020        22.0410          59.90          56.89           7.35
     10021        22.0430          55.96          56.90           7.07
     10022        22.0450          65.89          56.92           7.69
     10023        22.0470          52.29          56.94           6.87
     10024        22.0490          60.24          56.97           7.36
     10025        22.0510          58.36          56.99           7.25
     10026        22.0530          55.40          57.02           7.07
     10027        22.0550          60.69          57.06           7.39
     10028        22.0570          61.76          57.09           7.46
     10029        22.0590          58.43          57.14           7.26
     10030        22.0610          50.99          57.19           6.79
     10031        22.0630          55.04          57.25           7.06
     10032        22.0650          55.97          57.31           7.10
     10033        22.0670          63.87          57.39           7.58
     10034        22.0690          60.45          57.49           7.37
     10035        22.0710          53.83          57.61           6.97
     10036        22.0730          56.97          57.75           7.16
     10037        22.0750          62.25          57.92           7.49
     10038        22.0770          54.04          58.15           6.98
     10039        22.0790          53.03          58.47           6.91
     10040        22.0810          60.01          58.93           7.35
     10041        22.0830          65.02          59.67           7.66
     10042        22.0850          54.75          60.87           7.02
     10043        22.0870          56.95          62.83           7.14
     10044        22.0890          77.53          65.84           8.36
     10045        22.0910          79.71          70.10           8.47
     10046        22.0930          69.08          75.49           7.91
     10047        22.0950          79.84          81.32           8.48
     10048        22.0970         105.19          86.05           9.73
     10049        22.0990         101.33          87.52           9.55
     10050        22.1010          80.24          84.88           8.50
     10051        22.1030          70.32          79.62           7.96
     10052        22.1050          62.50          73.80           7.51
     10053        22.1070          57.69          68.71           7.22
     10054        22.1090          61.88          64.84           7.46
     10055        22.1110          60.45          62.17           7.37
     10056        22.1130          64.96          60.48           7.66
     10057        22.1150          63.17          59.44           7.55
     10058        22.1170          65.72          58.81           7.70
     10059        22.1190          70.12          58.41           7.96
     10060        22.1210          67.03          58.13           7.78
     10061        22.1230          58.44          57.92           7.26
     10062        22.1250          57.08          57.76           7.17
     10063        22.1270          54.85          57.63           7.02
     10064        22.1290          64.14          57.53           7.57
     10065        22.1310          66.01          57.44           7.69
     10066        22.1330          66.62          57.37           7.74
     10067        22.1350          55.30          57.31           7.05
     10068        22.1370          52.38          57.26           6.87
     10069        22.1390          56.17          57.21           7.12
     10070        22.1410          54.18          57.18           6.97
     10071        22.1430          47.21          57.14           6.49
     10072        22.1450          56.20          57.12           7.10
     10073        22.1470          55.51          57.10           7.06
     10074        22.1490          54.95          57.08           7.05
     10075        22.1510          57.47          57.06           7.19
     10076        22.1530          60.38          57.04           7.38
     10077        22.1550          56.96          57.03           7.14
     10078        22.1570          54.30          57.02           6.98
     10079        22.1590          56.94          57.01           7.17
     10080        22.1610          57.98          57.00           7.23
     10081        22.1630          54.76          56.99           7.01
     10082        22.1650          58.05          56.98           7.23
     10083        22.1670          51.95          56.97           6.83
     10084        22.1690          49.94          56.97           6.65
     10085        22.1710          58.34          56.96           7.23
     10086        22.1730          62.21          56.96           7.48
     10087        22.1750          56.56          56.96           7.13
     10088        22.1770          58.64          56.95           7.26
     10089        22.1790          58.81          56.95           7.29
     10090        22.1810          58.31          56.95           7.24
     10091        22.1830          60.74          56.95           7.39
     10092        22.1850          70.18          56.95           7.94
     10093        22.1870          68.65          56.95           7.85
     10094        22.1890          60.25          56.95           7.36
     10095        22.1910          59.70          56.95           7.34
     10096        22.1930          61.18          56.95           7.43
     10097        22.1950          58.46          56.95           7.24
     10098        22.1970          53.30          56.95           6.91
     10099        22.1990          55.80          56.95           7.08
     10100        22.2010          52.73          56.95           6.87
     10101        22.2030          58.71          56.95           7.27
     10102        22.2050          57.94          56.96           7.23
     10103        22.2070          64.95          56.96           7.62
     10104        22.2090          62.97          56.96           7.49
     10105        22.2110          60.39          56.96           7.36
     10106        22.2130          64.70          56.96           7.63
     10107        22.2150          50.10          56.97           6.72
     10108        22.2170          51.71          56.97           6.81
     10109        22.2190          57.50          56.97           7.21
     10110        22.2210          51.43          56.97           6.81
     10111        22.2230          50.69          56.98           6.75
     10112        22.2250          60.00          56.98           7.36
     10113        22.2270          63.77          56.98           7.58
     10114        22.2290          62.46          56.99           7.50
     10115        22.2310          56.94          56.99           7.16
     10116        22.2330          54.14          56.99           6.98
     10117        22.2350          64.24          57.00           7.59
     10118        22.2370          63.25          57.00           7.53
     10119        22.2390          58.40          57.00           7.22
     10120        22.2410          51.91          57.01           6.81
     10121        22.2430          58.79          57.01           7.28
     10122        22.2450          54.23          57.01           6.98
     10123        22.2470          58.71          57.02           7.27
     10124        22.2490          54.21          57.02           6.99
     10125        22.2510          57.00          57.03           7.17
     10126        22.2530          61.71          57.03           7.47
     10127        22.2550          58.72          57.03           7.28
     10128        22.2570          65.64          57.04           7.67
     10129        22.2590          68.64          57.04           7.85
     10130        22.2610          55.97          57.05           7.10
     10131        22.2630          59.71          57.05           7.33
     10132        22.2650          57.82          57.06           7.21
     10133        22.2670          57.38          57.06           7.19
     10134        22.2690          53.25          57.07           6.92
     10135        22.2710          53.88          57.07           6.95
     10136        22.2730          58.10          57.08           7.23
     10137        22.2750          59.79          57.08           7.31
     10138        22.2770          63.94          57.09           7.58
     10139        22.2790          57.35          57.09           7.20
     10140        22.2810          59.47          57.10           7.32
     10141        22.2830          55.32          57.10           7.06
     10142        22.2850          57.42          57.11           7.19
     10143        22.2870          64.34          57.11           7.62
     10144        22.2890          52.47          57.12           6.85
     10145        22.2910          48.89          57.12           6.58
     10146        22.2930          54.54          57.13           6.97
     10147        22.2950          57.81          57.13           7.21
     10148        22.2970          57.05          57.14           7.18
     10149        22.2990          58.89          57.14           7.30
     10150        22.3010          58.43          57.15           7.25
     10151        22.3030          56.07          57.15           7.10
     10152        22.3050          48.38          57.16           6.61
     10153        22.3070          52.67          57.17           6.89
     10154        22.3090          49.59          57.17           6.68
     10155        22.3110          53.12          57.18           6.92
     10156        22.3130          54.57          57.18           7.03
     10157        22.3150          63.15          57.19           7.52
     10158        22.3170          62.38          57.20           7.49
     10159        22.3190          65.88          57.20           7.71
     10160        22.3210          61.89          57.21           7.47
     10161        22.3230          61.40          57.22           7.43
     10162        22.3250          63.06          57.22           7.53
     10163        22.3270          57.06          57.23           7.18
     10164        22.3290          53.72          57.24           6.96
     10165        22.3310          65.85          57.24           7.69
     10166        22.3330          65.31          57.25           7.66
     10167        22.3350          63.33          57.26           7.56
     10168        22.3370          62.60          57.26           7.49
     10169        22.3390          61.88          57.27           7.45
     10170        22.3410          55.83          57.28           7.09
     10171        22.3430          53.88          57.29           6.96
     10172        22.3450          59.48          57.30           7.31
     10173        22.3470          56.02          57.30           7.09
     10174        22.3490          53.84          57.31           6.94
     10175        22.3510          49.92          57.32           6.70
     10176        22.3530          62.38          57.33           7.50
     10177        22.3550          68.14          57.34           7.84
     10178        22.3570          59.91          57.35           7.35
     10179        22.3590          60.16          57.36           7.37
     10180        22.3610          57.21          57.37           7.17
     10181        22.3630          58.31          57.38           7.28
     10182        22.3650          59.82          57.40           7.35
     10183        22.3670          54.64          57.41           7.00
     10184        22.3690          46.88          57.42           6.47
     10185        22.3710          63.35          57.44           7.55
     10186        22.3730          55.98          57.45           7.09
     10187        22.3750          58.17          57.46           7.21
     10188        22.3770          66.16          57.48           7.71
     10189        22.3790          50.71          57.50           6.76
     10190        22.3810          54.91          57.52           7.02
     10191        22.3830          53.49          57.54           6.94
     10192        22.3850          52.68          57.57           6.89
     10193        22.3870          62.10          57.60           7.48
     10194        22.3890          59.12          57.63           7.29
     10195        22.3910          49.07          57.67           6.63
     10196        22.3930          50.95          57.72           6.76
     10197        22.3950          46.43          57.77           6.43
     10198        22.3970          58.97          57.83           7.28
     10199        22.3990          56.90          57.90           7.15
     10200        22.4010          53.14          57.99           6.90
     10201        22.4030          55.84          58.11           7.09
     10202        22.4050          50.26          58.26           6.72
     10203        22.4070          52.91          58.48           6.88
     10204        22.4090          59.01          58.81           7.28
     10205        22.4110          59.05          59.35           7.28
     10206        22.4130          63.69          60.22           7.58
     10207        22.4150          65.20          61.57           7.66
     10208        22.4170          63.21          63.53           7.54
     10209        22.4190          68.12          66.09           7.84
     10210        22.4210          76.64          69.03           8.31
     10211        22.4230          78.96          71.74           8.43
     10212        22.4250          75.28          73.22           8.19
     10213        22.4270          60.33          72.66           7.32
     10214        22.4290          55.89          70.41           7.09
     10215        22.4310          60.98          67.49           7.39
     10216        22.4330          67.13          64.71           7.77
     10217        22.4350          71.13          62.47           8.00
     10218        22.4370          70.57          60.85           7.97
     10219        22.4390          66.82          59.79           7.75
     10220        22.4410          61.74          59.12           7.44
     10221        22.4430          48.95          58.72           6.63
     10222        22.4450          49.85          58.47           6.71
     10223        22.4470          57.04          58.30           7.16
     10224        22.4490          51.35          58.18           6.78
     10225        22.4510          50.95          58.10           6.77
     10226        22.4530          59.05          58.03           7.29
     10227        22.4550          56.99          57.97           7.14
     10228        22.4570          56.55          57.93           7.08
     10229        22.4590          62.24          57.89           7.46
     10230        22.4610          57.33          57.86           7.18
     10231        22.4630          64.98          57.84           7.65
     10232        22.4650          60.73          57.83           7.38
     10233        22.4670          49.70          57.81           6.68
     10234        22.4690          50.01          57.80           6.67
     10235        22.4710          63.17          57.79           7.54
     10236        22.4730          58.86          57.78           7.27
     10237        22.4750          60.33          57.77           7.36
     10238        22.4770          58.28          57.76           7.24
     10239        22.4790          50.37          57.76           6.73
     10240        22.4810          62.98          57.76           7.51
     10241        22.4830          64.94          57.75           7.64
     10242        22.4850          63.35          57.75           7.54
     10243        22.4870          55.33          57.75           7.03
     10244        22.4890          45.34          57.75           6.37
     10245        22.4910          50.83          57.75           6.78
     10246        22.4930          53.47          57.75           6.92
     10247        22.4950          50.04          57.75           6.70
     10248        22.4970          58.94          57.76           7.26
     10249        22.4990          61.61          57.76           7.44
     10250        22.5010          56.26          57.76           7.12
     10251        22.5030          52.56          57.76           6.88
     10252        22.5050          56.69          57.77           7.13
     10253        22.5070          62.08          57.77           7.48
     10254        22.5090          54.56          57.77           7.01
     10255        22.5110          58.09          57.78           7.21
     10256        22.5130          61.17          57.78           7.40
     10257        22.5150          50.25          57.78           6.72
     10258        22.5170          53.18          57.79           6.92
     10259        22.5190          52.12          57.79           6.85
     10260        22.5210          52.11          57.80           6.84
     10261        22.5230          53.71          57.80           6.94
     10262        22.5250          57.26          57.81           7.17
     10263        22.5270          57.95          57.81           7.23
     10264        22.5290          59.77          57.81           7.33
     10265        22.5310          63.02          57.82           7.53
     10266        22.5330          61.52          57.82           7.44
     10267        22.5350          57.20          57.83           7.17
     10268        22.5370          60.43          57.83           7.38
     10269        22.5390          58.06          57.84           7.23
     10270        22.5410          58.70          57.84           7.26
     10271        22.5430          64.02          57.85           7.58
     10272        22.5450          62.78          57.86           7.51
     10273        22.5470          57.33          57.86           7.17
     10274        22.5490          52.42          57.87           6.86
     10275        22.5510          58.33          57.87           7.25
     10276        22.5530          55.08          57.88           7.05
     10277        22.5550          57.87          57.88           7.21
     10278        22.5570          59.32          57.89           7.31
     10279        22.5590          58.12          57.89           7.23
     10280        22.5610          52.78          57.90           6.87
     10281        22.5630          63.63          57.90           7.54
     10282        22.5650          60.34          57.91           7.35
     10283        22.5670          60.80          57.92           7.39
     10284        22.5690          56.41          57.92           7.12
     10285        22.5710          58.36          57.93           7.25
     10286        22.5730          55.45          57.93           7.06
     10287        22.5750          60.63          57.94           7.38
     10288        22.5770          60.53          57.94           7.36
     10289        22.5790          46.54          57.95           6.41
     10290        22.5810          44.85          57.96           6.33
     10291        22.5830          58.73          57.96           7.27
     10292        22.5850          61.90          57.97           7.47
     10293        22.5870          60.48          57.97           7.38
     10294        22.5890          60.15          57.98           7.36
     10295        22.5910          61.14          57.99           7.42
     10296        22.5930          66.20          57.99           7.71
     10297        22.5950          56.85          58.00           7.13
     10298        22.5970          59.45          58.00           7.30
     10299        22.5990          62.11          58.01           7.47
     10300        22.6010          50.35          58.02           6.71
     10301        22.6030          47.14          58.02           6.52
     10302        22.6050          50.07          58.03           6.72
     10303        22.6070          53.40          58.03           6.92
     10304        22.6090          60.49          58.04           7.38
     10305        22.6110          56.15          58.05           7.11
     10306        22.6130          56.76          58.05           7.14
     10307        22.6150          56.77          58.06           7.14
     10308        22.6170          61.71          58.07           7.43
     10309        22.6190          67.86          58.07           7.82
     10310        22.6210          58.92          58.08           7.28
     10311        22.6230          49.16          58.09           6.62
     10312        22.6250          37.36          58.09           5.79
     10313        22.6270          51.81          58.10           6.76
     10314        22.6290          59.23          58.11           7.28
     10315        22.6310          47.47          58.11           6.51
     10316        22.6330          55.53          58.12           7.05
     10317        22.6350          54.50          58.13           6.99
     10318        22.6370          54.52          58.14           6.99
     10319        22.6390          58.68          58.14           7.26
     10320        22.6410          54.69          58.15           7.00
     10321        22.6430          54.61          58.16           7.00
     10322        22.6450          66.53          58.17           7.71
     10323        22.6470          71.00          58.17           7.95
     10324        22.6490          49.44          58.18           6.64
     10325        22.6510          51.73          58.19           6.82
     10326        22.6530          61.91          58.20           7.47
     10327        22.6550          67.61          58.21           7.80
     10328        22.6570          63.88          58.22           7.58
     10329        22.6590          61.68          58.22           7.45
     10330        22.6610          58.07          58.23           7.24
     10331        22.6630          61.76          58.24           7.45
     10332        22.6650          64.51          58.25           7.62
     10333        22.6670          58.24          58.26           7.24
     10334        22.6690          62.17          58.27           7.46
     10335        22.6710          69.96          58.29           7.93
     10336        22.6730          72.55          58.30           8.08
     10337        22.6750          68.36          58.31           7.84
     10338        22.6770          64.89          58.32           7.64
     10339        22.6790          69.08          58.34           7.89
     10340        22.6810          68.85          58.35           7.88
     10341        22.6830          66.92          58.36           7.75
     10342        22.6850          61.60          58.38           7.43
     10343        22.6870          53.97          58.40           6.97
     10344        22.6890          56.83          58.42           7.15
     10345        22.6910          54.79          58.44           7.01
     10346        22.6930          51.55          58.46           6.80
     10347        22.6950          48.09          58.48           6.56
     10348        22.6970          57.98          58.51           7.19
     10349        22.6990          58.96          58.53           7.26
     10350        22.7010          57.76          58.57           7.20
     10351        22.7030          54.59          58.60           6.99
     10352        22.7050          49.24          58.64           6.64
     10353        22.7070          59.83          58.68           7.33
     10354        22.7090          58.59          58.73           7.25
     10355        22.7110          51.92          58.78           6.83
     10356        22.7130          53.58          58.85           6.93
     10357        22.7150          58.93          58.92           7.29
     10358        22.7170          56.41          59.01           7.12
     10359        22.7190          55.30          59.12           7.05
     10360        22.7210          58.03          59.25           7.22
     10361        22.7230          55.78          59.41           7.08
     10362        22.7250          58.03          59.61           7.22
     10363        22.7270          63.17          59.88           7.54
     10364        22.7290          63.05          60.26           7.52
     10365        22.7310          69.92          60.85           7.92
     10366        22.7330          58.98          61.81           7.22
     10367        22.7350          60.19          63.35           7.34
     10368        22.7370          61.26          65.74           7.42
     10369        22.7390          61.70          69.21           7.43
     10370        22.7410          77.07          73.78           8.33
     10371        22.7430          79.40          79.10           8.46
     10372        22.7450          80.48          84.17           8.52
     10373        22.7470          91.38          87.31           9.03
     10374        22.7490          82.45          86.91           8.57
     10375        22.7510          73.49          83.21           8.08
     10376        22.7530          81.58          77.96           8.55
     10377        22.7550          67.17          72.75           7.76
     10378        22.7570          65.58          68.42           7.66
     10379        22.7590          58.80          65.20           7.25
     10380        22.7610          65.34          63.01           7.64
     10381        22.7630          63.34          61.63           7.52
     10382        22.7650          52.20          60.78           6.85
     10383        22.7670          64.21          60.25           7.56
     10384        22.7690          66.53          59.90           7.71
     10385        22.7710          61.31          59.66           7.43
     10386        22.7730          58.62          59.47           7.26
     10387        22.7750          56.99          59.33           7.15
     10388        22.7770          57.26          59.23           7.17
     10389        22.7790          54.61          59.13           6.99
     10390        22.7810          62.00          59.05           7.46
     10391        22.7830          66.98          58.99           7.74
     10392        22.7850          63.73          58.93           7.55
     10393        22.7870          60.44          58.89           7.36
     10394        22.7890          55.09          58.85           7.03
     10395        22.7910          58.59          58.81           7.26
     10396        22.7930          58.83          58.78           7.27
     10397        22.7950          54.08          58.76           6.97
     10398        22.7970          65.12          58.74           7.61
     10399        22.7990          65.80          58.72           7.66
     10400        22.8010          46.73          58.70           6.43
     10401        22.8030          56.50          58.69           7.01
     10402        22.8050          71.04          58.67           7.95
     10403        22.8070          58.78          58.66           7.25
     10404        22.8090          67.14          58.65           7.76
     10405        22.8110          61.82          58.64           7.44
     10406        22.8130          59.26          58.64           7.30
     10407        22.8150          59.12          58.63           7.29
     10408        22.8170          60.75          58.62           7.38
     10409        22.8190          54.45          58.62           6.98
     10410        22.8210          59.27          58.61           7.29
     10411        22.8230          69.52          58.61           7.89
     10412        22.8250          61.16          58.61           7.39
     10413        22.8270          48.57          58.60           6.59
     10414        22.8290          52.80          58.60           6.88
     10415        22.8310          67.72          58.60           7.75
     10416        22.8330          68.66          58.60           7.82
     10417        22.8350          57.41          58.60           7.17
     10418        22.8370          61.40          58.60           7.42
     10419        22.8390          56.36          58.60           7.09
     10420        22.8410          51.30          58.59           6.77
     10421        22.8430          54.51          58.59           6.99
     10422        22.8450          60.36          58.59           7.34
     10423        22.8470          65.39          58.59           7.66
     10424        22.8490          57.57          58.59           7.19
     10425        22.8510          52.18          58.59           6.84
     10426        22.8530          51.25          58.60           6.77
     10427        22.8550          53.31          58.60           6.90
     10428        22.8570          56.89          58.60           7.10
     10429        22.8590          70.41          58.60           7.93
     10430        22.8610          65.13          58.60           7.63
     10431        22.8630          63.99          58.60           7.57
     10432        22.8650          54.31          58.60           6.96
     10433        22.8670          58.29          58.60           7.21
     10434        22.8690          66.77          58.60           7.74
     10435        22.8710          58.23          58.60           7.22
     10436        22.8730          56.62          58.61           7.11
     10437        22.8750          61.64          58.61           7.42
     10438        22.8770          47.71          58.61           6.53
     10439        22.8790          54.59          58.61           6.97
     10440        22.8810          60.51          58.61           7.35
     10441        22.8830          50.51          58.61           6.72
     10442        22.8850          52.80          58.61           6.84
     10443        22.8870          61.76          58.62           7.44
     10444        22.8890          53.84          58.62           6.96
     10445        22.8910          58.22          58.62           7.24
     10446        22.8930          57.68          58.62           7.20
     10447        22.8950          54.71          58.62           6.98
     10448        22.8970          52.28          58.62           6.83
     10449        22.8990          54.84          58.63           6.99
     10450        22.9010          58.28          58.63           7.22
     10451        22.9030          54.45          58.63           6.98
     10452        22.9050          56.53          58.63           7.12
     10453        22.9070          59.32          58.63           7.29
     10454        22.9090          61.04          58.64           7.40
     10455        22.9110          57.39          58.64           7.17
     10456        22.9130          59.35          58.64           7.28
     10457        22.9150          54.43          58.64           6.93
     10458        22.9170          56.34          58.65           7.11
     10459        22.9190          48.05          58.65           6.56
     10460        22.9210          51.83          58.65           6.79
     10461        22.9230          57.33          58.65           7.17
     10462        22.9250          49.82          58.65           6.67
     10463        22.9270          50.13          58.66           6.65
     10464        22.9290          63.71          58.66           7.56
     10465        22.9310          58.00          58.66           7.20
     10466        22.9330          55.14          58.66           7.03
     10467        22.9350          52.22          58.67           6.83
     10468        22.9370          52.87          58.67           6.88
     10469        22.9390          51.39          58.67           6.78
     10470        22.9410          61.15          58.67           7.41
     10471        22.9430          56.48          58.68           7.12
     10472        22.9450          55.52          58.68           7.04
     10473        22.9470          52.52          58.68           6.84
     10474        22.9490          52.77          58.69           6.87
     10475        22.9510          60.58          58.69           7.37
     10476        22.9530          64.93          58.69           7.64
     10477        22.9550          61.49          58.69           7.43
     10478        22.9570          58.63          58.70           7.26
     10479        22.9590          56.21          58.70           7.10
     10480        22.9610          60.11          58.70           7.33
     10481        22.9630          59.38          58.71           7.29
     10482        22.9650          51.53          58.71           6.80
     10483        22.9670          55.54          58.72           7.07
     10484        22.9690          60.96          58.72           7.41
     10485        22.9710          61.62          58.72           7.43
     10486        22.9730          58.13          58.73           7.22
     10487        22.9750          56.03          58.73           7.10
     10488        22.9770          58.71          58.74           7.25
     10489        22.9790          59.16          58.74           7.28
     10490        22.9810          62.91          58.75           7.52
     10491        22.9830          61.57          58.76           7.44
     10492        22.9850          64.50          58.76           7.61
     10493        22.9870          71.13          58.77           7.98
     10494        22.9890          63.53          58.78           7.53
     10495        22.9910          69.49          58.79           7.89
     10496        22.9930          68.21          58.79           7.82
     10497        22.9950          57.60          58.80           7.18
     10498        22.9970          54.54          58.81           6.99
     10499        22.9990          51.36          58.82           6.79
     10500        23.0010          53.65          58.84           6.94
     10501        23.0030          51.74          58.85           6.81
     10502        23.0050          52.23          58.86           6.84
     10503        23.0070          53.10          58.88           6.91
     10504        23.0090          51.88          58.89           6.83
     10505        23.0110          64.02          58.91           7.56
     10506        23.0130          66.22          58.93           7.70
     10507        23.0150          63.00          58.96           7.51
     10508        23.0170          55.24          58.98           7.03
     10509        23.0190          59.89          59.01           7.32
     10510        23.0210          56.57          59.04           7.11
     10511        23.0230          64.00          59.08           7.56
     10512        23.0250          66.85          59.12           7.70
     10513        23.0270          54.19          59.17           6.93
     10514        23.0290          66.22          59.23           7.72
     10515        23.0310          63.44          59.29           7.54
     10516        23.0330          56.25          59.36           7.08
     10517        23.0350          51.28          59.46           6.76
     10518        23.0370          53.64          59.57           6.93
     10519        23.0390          57.96          59.70           7.17
     10520        23.0410          73.18          59.87           8.06
     10521        23.0430          63.85          60.08           7.55
     10522        23.0450          62.27          60.38           7.46
     10523        23.0470          48.13          60.80           6.56
     10524        23.0490          48.76          61.45           6.59
     10525        23.0510          61.54          62.49           7.43
     10526        23.0530          60.95          64.17           7.40
     10527        23.0550          66.86          66.76           7.75
     10528        23.0570          77.00          70.47           8.31
     10529        23.0590          71.73          75.32           7.99
     10530        23.0610          85.01          80.94           8.73
     10531        23.0630          86.95          86.29           8.85
     10532        23.0650          86.87          89.62           8.85
     10533        23.0670          94.18          89.30           9.19
     10534        23.0690          82.14          85.50           8.55
     10535        23.0710          74.16          80.00           8.13
     10536        23.0730          87.83          74.46           8.84
     10537        23.0750          94.22          69.78           9.17
     10538        23.0770          82.83          66.26           8.60
     10539        23.0790          63.36          63.84           7.52
     10540        23.0810          65.14          62.28           7.63
     10541        23.0830          67.93          61.31           7.81
     10542        23.0850          68.34          60.71           7.83
     10543        23.0870          63.02          60.33           7.51
     10544        23.0890          50.36          60.05           6.72
     10545        23.0910          58.35          59.84           7.21
     10546        23.0930          73.61          59.68           8.12
     10547        23.0950          71.98          59.55           8.03
     10548        23.0970          62.77          59.44           7.50
     10549        23.0990          62.12          59.35           7.46
     10550        23.1010          64.85          59.27           7.62
     10551        23.1030          57.46          59.21           7.18
     10552        23.1050          64.81          59.15           7.60
     10553        23.1070          67.08          59.10           7.74
     10554        23.1090          64.28          59.06           7.56
     10555        23.1110          55.22          59.03           7.00
     10556        23.1130          62.67          58.99           7.48
     10557        23.1150          55.84          58.96           7.04
     10558        23.1170          63.09          58.94           7.51
     10559        23.1190          63.93          58.92           7.57
     10560        23.1210          59.16          58.89           7.28
     10561        23.1230          61.24          58.88           7.40
     10562        23.1250          66.04          58.86           7.69
     10563        23.1270          60.75          58.84           7.38
     10564        23.1290          63.47          58.83           7.55
     10565        23.1310          64.10          58.82           7.59
     10566        23.1330          61.71          58.80           7.44
     10567        23.1350          67.14          58.79           7.76
     10568        23.1370          65.09          58.78           7.64
     10569        23.1390          62.41          58.77           7.49
     10570        23.1410          60.59          58.76           7.37
     10571        23.1430          46.20          58.76           6.44
     10572        23.1450          50.75          58.75           6.71
     10573        23.1470          55.90          58.74           7.07
     10574        23.1490          55.30          58.73           7.02
     10575        23.1510          59.00          58.73           7.27
     10576        23.1530          65.59          58.72           7.65
     10577        23.1550          65.27          58.71           7.63
     10578        23.1570          60.89          58.71           7.38
     10579        23.1590          61.70          58.70           7.43
     10580        23.1610          66.24          58.70           7.68
     10581        23.1630          55.28          58.69           7.02
     10582        23.1650          54.81          58.69           6.97
     10583        23.1670          62.40          58.69           7.49
     10584        23.1690          62.81          58.68           7.50
     10585        23.1710          56.75          58.68           7.11
     10586        23.1730          54.77          58.67           7.00
     10587        23.1750          64.27          58.67           7.58
     10588        23.1770          66.95          58.67           7.74
     10589        23.1790          56.57          58.66           7.11
     10590        23.1810          60.56          58.66           7.37
     10591        23.1830          65.38          58.66           7.66
     10592        23.1850          57.96          58.65           7.20
     10593        23.1870          57.24          58.65           7.16
     10594        23.1890          62.81          58.65           7.52
     10595        23.1910          63.62          58.64           7.52
     10596        23.1930          52.32          58.64           6.83
     10597        23.1950          47.41          58.64           6.50
     10598        23.1970          56.42          58.63           7.12
     10599        23.1990          56.49          58.63           7.12
     10600        23.2010          52.19          58.63           6.84
     10601        23.2030          51.65          58.63           6.81
     10602        23.2050          57.28          58.62           7.16
     10603        23.2070          62.09          58.62           7.46
     10604        23.2090          55.58          58.62           7.05
     10605        23.2110          51.15          58.62           6.76
     10606        23.2130          55.05          58.62           7.02
     10607        23.2150          55.68          58.61           7.06
     10608        23.2170          56.16          58.61           7.09
     10609        23.2190          56.57          58.61           7.11
     10610        23.2210          63.08          58.61           7.52
     10611        23.2230          62.72          58.61           7.50
     10612        23.2250          65.80          58.60           7.68
     10613        23.2270          65.03          58.60           7.64
     10614        23.2290          67.35          58.60           7.77
     10615        23.2310          65.57          58.60           7.67
     10616        23.2330          63.52          58.60           7.55
     10617        23.2350          61.84          58.60           7.44
     10618        23.2370          55.32          58.60           7.04
     10619        23.2390          62.85          58.59           7.50
     10620        23.2410          59.39          58.59           7.30
     10621        23.2430          64.92          58.59           7.62
     10622        23.2450          62.95          58.59           7.50
     10623        23.2470          60.61          58.59           7.37
     10624        23.2490          59.68          58.59           7.30
     10625        23.2510          50.33          58.59           6.71
     10626        23.2530          54.95          58.59           7.03
     10627        23.2550          60.91          58.59           7.37
     10628        23.2570          68.40          58.59           7.81
     10629        23.2590          68.07          58.59           7.78
     10630        23.2610          56.28          58.59           7.09
     10631        23.2630          60.51          58.59           7.38
     10632        23.2650          59.52          58.59           7.31
     10633        23.2670          68.82          58.59           7.85
     10634        23.2690          68.17          58.59           7.81
     10635        23.2710          58.02          58.59           7.22
     10636        23.2730          62.67          58.59           7.50
     10637        23.2750          62.88          58.59           7.50
     10638        23.2770          54.44          58.59           6.98
     10639        23.2790          61.88          58.59           7.43
     10640        23.2810          70.61          58.59           7.95
     10641        23.2830          61.35          58.60           7.39
     10642        23.2850          54.10          58.60           6.96
     10643        23.2870          53.96          58.60           6.95
     10644        23.2890          57.23          58.60           7.18
     10645        23.2910          56.47          58.61           7.09
     10646        23.2930          51.97          58.61           6.81
     10647        23.2950          64.53          58.62           7.60
     10648        23.2970          67.15          58.62           7.75
     10649        23.2990          60.82          58.63           7.37
     10650        23.3010          51.37          58.63           6.78
     10651        23.3030          60.56          58.64           7.35
     10652        23.3050          71.05          58.65           7.98
     10653        23.3070          59.42          58.65           7.30
     10654        23.3090          52.24          58.66           6.84
     10655        23.3110          54.91          58.67           7.02
     10656        23.3130          61.30          58.69           7.42
     10657        23.3150          57.45          58.70           7.18
     10658        23.3170          61.85          58.71           7.44
     10659        23.3190          56.84          58.73           7.11
     10660        23.3210          54.85          58.75           7.02
     10661        23.3230          60.59          58.77           7.37
     10662        23.3250          64.35          58.79           7.60
     10663        23.3270          64.27          58.82           7.59
     10664        23.3290          63.46          58.85           7.53
     10665        23.3310          55.79          58.88           7.06
     10666        23.3330          54.38          58.92           6.98
     10667        23.3350          57.14          58.97           7.14
     10668        23.3370          65.73          59.02           7.66
     10669        23.3390          53.57          59.07           6.90
     10670        23.3410          59.72          59.14           7.33
     10671        23.3430          63.95          59.22           7.56
     10672        23.3450          59.53          59.31           7.28
     10673        23.3470          64.79          59.42           7.64
     10674        23.3490          67.16          59.55           7.76
     10675        23.3510          69.30          59.71           7.88
     10676        23.3530          64.95          59.90           7.62
     10677        23.3550          70.41          60.12           7.96
     10678        23.3570          66.45          60.43           7.72
     10679        23.3590          62.82          60.86           7.50
     10680        23.3610          67.69          61.47           7.79
     10681        23.3630          72.48          62.43           8.06
     10682        23.3650          73.85          63.97           8.14
     10683        23.3670          66.39          66.41           7.70
     10684        23.3690          59.60          70.13           7.28
     10685        23.3710          65.87          75.41           7.69
     10686        23.3730          66.32          82.21           7.72
     10687        23.3750          79.19          89.99           8.43
     10688        23.3770         112.04          97.30           9.95
     10689        23.3790         146.60         101.74          11.47
     10690        23.3810         150.21         101.18          11.57
     10691        23.3830         116.72          95.91          10.14
     10692        23.3850          90.44          88.32           8.99
     10693        23.3870          78.73          80.66           8.36
     10694        23.3890          63.35          74.14           7.53
     10695        23.3910          68.17          69.20           7.75
     10696        23.3930          79.88          65.77           8.43
     10697        23.3950          60.46          63.54           7.35
     10698        23.3970          63.93          62.14           7.56
     10699        23.3990          61.10          61.27           7.39
     10700        23.4010          62.93          60.69           7.51
     10701        23.4030          52.79          60.29           6.87
     10702        23.4050          50.76          60.00           6.73
     10703        23.4070          54.33          59.76           6.97
     10704        23.4090          49.70          59.58           6.65
     10705        23.4110          60.16          59.42           7.33
     10706        23.4130          65.44          59.29           7.66
     10707        23.4150          56.57          59.18           7.13
     10708        23.4170          54.86          59.08           7.01
     10709        23.4190          50.82          59.00           6.75
     10710        23.4210          52.38          58.93           6.84
     10711        23.4230          57.23          58.87           7.15
     10712        23.4250          52.65          58.81           6.86
     10713        23.4270          51.39          58.77           6.78
     10714        23.4290          49.57          58.72           6.67
     10715        23.4310          51.37          58.68           6.78
     10716        23.4330          53.08          58.65           6.88
     10717        23.4350          60.97          58.62           7.38
     10718        23.4370          64.07          58.59           7.55
     10719        23.4390          50.20          58.56           6.70
     10720        23.4410          57.37          58.54           7.11
     10721        23.4430          69.58          58.52           7.90
     10722        23.4450          60.81          58.50           7.39
     10723        23.4470          68.06          58.48           7.78
     10724        23.4490          66.23          58.46           7.68
     10725        23.4510          55.31          58.45           7.04
     10726        23.4530          57.33          58.43           7.18
     10727        23.4550          60.77          58.42           7.36
     10728        23.4570          57.16          58.40           7.14
     10729        23.4590          64.79          58.39           7.62
     10730        23.4610          60.03          58.38           7.31
     10731        23.4630          52.00          58.37           6.81
     10732        23.4650          61.95          58.36           7.44
     10733        23.4670          60.68          58.35           7.36
     10734        23.4690          55.13          58.34           7.03
     10735        23.4710          57.89          58.33           7.19
     10736        23.4730          58.64          58.32           7.24
     10737        23.4750          51.28          58.31           6.77
     10738        23.4770          54.80          58.30           6.98
     10739        23.4790          53.96          58.30           6.92
     10740        23.4810          59.54          58.29           7.29
     10741        23.4830          61.62          58.28           7.45
     10742        23.4850          64.31          58.28           7.58
     10743        23.4870          58.44          58.27           7.22
     10744        23.4890          55.83          58.26           7.08
     10745        23.4910          56.50          58.26           7.11
     10746        23.4930          64.38          58.25           7.59
     10747        23.4950          68.58          58.25           7.83
     10748        23.4970          64.77          58.24           7.60
     10749        23.4990          52.32          58.23           6.84
     10750        23.5010          42.25          58.23           6.15
     10751        23.5030          58.45          58.22           7.14
     10752        23.5050          67.60          58.22           7.76
     10753        23.5070          59.21          58.21           7.29
     10754        23.5090          68.09          58.21           7.79
     10755        23.5110          66.07          58.21           7.67
     10756        23.5130          57.37          58.20           7.16
     10757        23.5150          54.82          58.20           7.00
     10758        23.5170          54.31          58.19           6.98
     10759        23.5190          54.10          58.19           6.98
     10760        23.5210          56.83          58.18           7.12
     10761        23.5230          51.44          58.18           6.79
     10762        23.5250          61.34          58.18           7.38
     10763        23.5270          71.68          58.17           8.02
     10764        23.5290          64.56          58.17           7.61
     10765        23.5310          62.97          58.16           7.51
     10766        23.5330          56.72          58.16           7.13
     10767        23.5350          57.23          58.16           7.16
     10768        23.5370          57.33          58.15           7.17
     10769        23.5390          50.97          58.15           6.75
     10770        23.5410          55.49          58.15           7.01
     10771        23.5430          58.40          58.14           7.23
     10772        23.5450          56.64          58.14           7.11
     10773        23.5470          59.59          58.14           7.29
     10774        23.5490          52.78          58.13           6.87
     10775        23.5510          56.27          58.13           7.09
     10776        23.5530          60.23          58.13           7.35
     10777        23.5550          66.68          58.13           7.70
     10778        23.5570          61.42          58.12           7.39
     10779        23.5590          60.04          58.12           7.32
     10780        23.5610          62.27          58.12           7.46
     10781        23.5630          55.30          58.11           7.03
     10782        23.5650          53.09          58.11           6.89
     10783        23.5670          67.96          58.11           7.78
     10784        23.5690          66.15          58.11           7.69
     10785        23.5710          56.26          58.10           7.08
     10786        23.5730          57.80          58.10           7.21
     10787        23.5750          57.24          58.10           7.14
     10788        23.5770          53.62          58.10           6.90
     10789        23.5790          62.39          58.09           7.49
     10790        23.5810          66.86          58.09           7.76
     10791        23.5830          67.03          58.09           7.76
     10792        23.5850          61.86          58.09           7.44
     10793        23.5870          58.60          58.08           7.24
     10794        23.5890          58.14          58.08           7.21
     10795        23.5910          47.14          58.08           6.50
     10796        23.5930          51.23          58.08           6.76
     10797        23.5950          59.73          58.08           7.32
     10798        23.5970          58.93          58.07           7.28
     10799        23.5990          60.49          58.07           7.37
     10800        23.6010          56.24          58.07           7.03
     10801        23.6030          44.99          58.07           6.32
     10802        23.6050          56.62          58.06           7.12
     10803        23.6070          69.26          58.06           7.87
     10804        23.6090          72.69          58.06           8.08
     10805        23.6110          66.60          58.06           7.73
     10806        23.6130          62.55          58.06           7.47
     10807        23.6150          60.88          58.06           7.37
     10808        23.6170          63.29          58.05           7.51
     10809        23.6190          57.67          58.05           7.13
     10810        23.6210          43.34          58.05           6.18
     10811        23.6230          58.78          58.05           7.22
     10812        23.6250          61.60          58.05           7.41
     10813        23.6270          64.58          58.05           7.62
     10814        23.6290          64.18          58.04           7.56
     10815        23.6310          50.28          58.04           6.67
     10816        23.6330          47.35          58.04           6.50
     10817        23.6350          49.99          58.04           6.69
     10818        23.6370          54.26          58.04           6.95
     10819        23.6390          53.87          58.04           6.91
     10820        23.6410          59.63          58.04           7.33
     10821        23.6430          61.79          58.03           7.44
     10822        23.6450          64.89          58.03           7.62
     10823        23.6470          59.35          58.03           7.28
     10824        23.6490          57.56          58.03           7.18
     10825        23.6510          56.64          58.03           7.11
     10826        23.6530          67.74          58.03           7.78
     10827        23.6550          58.31          58.03           7.21
     10828        23.6570          54.17          58.03           6.95
     10829        23.6590          56.17          58.02           7.11
     10830        23.6610          55.42          58.02           7.05
     10831        23.6630          63.52          58.02           7.55
     10832        23.6650          64.96          58.02           7.64
     10833        23.6670          61.33          58.02           7.42
     10834        23.6690          63.91          58.02           7.58
     10835        23.6710          58.70          58.02           7.25
     10836        23.6730          52.30          58.00           6.85
     10837        23.6750          56.55          58.00           7.09
     10838        23.6770          49.46          58.00           6.64
     10839        23.6790          55.05          58.00           7.02
     10840        23.6810          61.17          58.00           7.38
     10841        23.6830          60.74          58.00           7.36
     10842        23.6850          55.75          58.00           7.06
     10843        23.6870          60.58          58.00           7.38
     10844        23.6890          60.05          58.00           7.34
     10845        23.6910          57.48          58.00           7.17
     10846        23.6930          56.29          58.00           7.09
     10847        23.6950          56.54          58.00           7.10
     10848        23.6970          60.19          58.00           7.35
     10849        23.6990          59.30          58.00           7.29
     10850        23.7010          63.01          58.00           7.49
     10851        23.7030          60.53          58.00           7.35
     10852        23.7050          61.78          58.00           7.43
     10853        23.7070          59.05          58.00           7.27
     10854        23.7090          58.96          58.00           7.24
     10855        23.7110          62.29          58.00           7.43
     10856        23.7130          51.11          58.00           6.75
     10857        23.7150          55.61          58.00           7.05
     10858        23.7170          55.17          58.00           7.03
     10859        23.7190          59.49          58.00           7.31
     10860        23.7210          62.35          58.00           7.48
     10861        23.7230          63.39          58.00           7.54
     10862        23.7250          63.75          58.00           7.56
     10863        23.7270          61.71          58.00           7.44
     10864        23.7290          60.37          58.01           7.36
     10865        23.7310          66.34          58.01           7.66
     10866        23.7330          57.32          58.01           7.16
     10867        23.7350          63.51          58.01           7.53
     10868        23.7370          67.96          58.01           7.80
     10869        23.7390          55.66          58.01           7.07
     10870        23.7410          50.68          58.01           6.74
     10871        23.7430          51.72          58.01           6.82
     10872        23.7450          62.94          58.01           7.49
     10873        23.7470          63.86          58.01           7.56
     10874        23.7490          54.02          58.01           6.95
     10875        23.7510          48.88          58.01           6.61
     10876        23.7530          54.27          58.01           6.98
     10877        23.7550          56.00          58.01           7.10
     10878        23.7570          58.78          58.01           7.24
     10879        23.7590          59.24          58.01           7.28
     10880        23.7610          61.78          58.01           7.44
     10881        23.7630          61.40          58.01           7.41
     10882        23.7650          59.42          58.02           7.29
     10883        23.7670          62.82          58.02           7.50
     10884        23.7690          58.99          58.02           7.25
     10885        23.7710          48.78          58.02           6.60
     10886        23.7730          55.99          58.02           7.10
     10887        23.7750          57.89          58.02           7.20
     10888        23.7770          57.50          58.02           7.17
     10889        23.7790          63.63          58.02           7.56
     10890        23.7810          59.82          58.02           7.32
     10891        23.7830          57.87          58.03           7.20
     10892        23.7850          59.23          58.03           7.28
     10893        23.7870          54.14          58.03           6.97
     10894        23.7890          57.34          58.03           7.15
     10895        23.7910          66.00          58.03           7.69
     10896        23.7930          58.08          58.03           7.21
     10897        23.7950          62.06          58.03           7.45
     10898        23.7970          61.74          58.03           7.44
     10899        23.7990          59.55          58.04           7.31
     10900        23.8010          56.84          58.04           7.14
     10901        23.8030          52.45          58.04           6.87
     10902        23.8050          58.43          58.04           7.24
     10903        23.8070          58.98          58.04           7.28
     10904        23.8090          58.94          58.04           7.26
     10905        23.8110          61.32          58.05           7.41
     10906        23.8130          65.10          58.05           7.64
     10907        23.8150          54.52          58.05           6.95
     10908        23.8170          51.85          58.05           6.78
     10909        23.8190          63.80          58.05           7.57
     10910        23.8210          62.80          58.06           7.50
     10911        23.8230          59.48          58.06           7.30
     10912        23.8250          61.84          58.06           7.44
     10913        23.8270          57.62          58.06           7.16
     10914        23.8290          52.17          58.06           6.81
     10915        23.8310          59.01          58.07           7.25
     10916        23.8330          53.62          58.07           6.91
     10917        23.8350          61.63          58.07           7.43
     10918        23.8370          61.77          58.07           7.44
     10919        23.8390          58.58          58.08           7.24
     10920        23.8410          57.29          58.08           7.16
     10921        23.8430          57.44          58.08           7.15
     10922        23.8450          51.87          58.08           6.80
     10923        23.8470          60.35          58.08           7.33
     10924        23.8490          64.14          58.09           7.57
     10925        23.8510          69.33          58.09           7.87
     10926        23.8530          71.85          58.09           8.03
     10927        23.8550          65.46          58.10           7.65
     10928        23.8570          56.64          58.10           7.13
     10929        23.8590          57.28          58.10           7.17
     10930        23.8610          63.68          58.10           7.55
     10931        23.8630          64.21          58.11           7.58
     10932        23.8650          65.08          58.11           7.64
     10933        23.8670          60.05          58.11           7.34
     10934        23.8690          57.67          58.12           7.19
     10935        23.8710          53.97          58.12           6.94
     10936        23.8730          56.27          58.12           7.09
     10937        23.8750          54.39          58.13           6.97
     10938        23.8770          57.99          58.13           7.17
     10939        23.8790          56.69          58.13           7.11
     10940        23.8810          54.72          58.14           7.00
     10941        23.8830          55.82          58.14           7.07
     10942        23.8850          60.32          58.15           7.36
     10943        23.8870          63.18          58.15           7.54
     10944        23.8890          62.77          58.15           7.51
     10945        23.8910          60.79          58.16           7.39
     10946        23.8930          59.90          58.16           7.32
     10947        23.8950          64.76          58.17           7.61
     10948        23.8970          56.31          58.17           7.11
     10949        23.8990          59.18          58.18           7.27
     10950        23.9010          57.08          58.18           7.13
     10951        23.9030          58.30          58.19           7.23
     10952        23.9050          52.71          58.19           6.86
     10953        23.9070          60.44          58.20           7.29
     10954        23.9090          67.32          58.20           7.75
     10955        23.9110          58.57          58.21           7.25
     10956        23.9130          60.94          58.22           7.39
     10957        23.9150          58.23          58.22           7.21
     10958        23.9170          53.53          58.23           6.90
     10959        23.9190          65.64          58.24           7.67
     10960        23.9210          66.82          58.24           7.74
     10961        23.9230          58.34          58.25           7.22
     10962        23.9250          51.19          58.26           6.75
     10963        23.9270          52.75          58.27           6.88
     10964        23.9290          53.63          58.28           6.91
     10965        23.9310          54.44          58.29           6.97
     10966        23.9330          59.96          58.30           7.31
     10967        23.9350          60.16          58.31           7.33
     10968        23.9370          53.49          58.32           6.93
     10969        23.9390          59.74          58.34           7.31
     10970        23.9410          65.34          58.35           7.66
     10971        23.9430          59.14          58.37           7.30
     10972        23.9450          62.28          58.38           7.44
     10973        23.9470          72.79          58.40           8.07
     10974        23.9490          70.92          58.42           7.96
     10975        23.9510          58.43          58.45           7.23
     10976        23.9530          57.15          58.47           7.16
     10977        23.9550          57.65          58.50           7.19
     10978        23.9570          62.25          58.54           7.47
     10979        23.9590          61.41          58.57           7.42
     10980        23.9610          64.12          58.62           7.56
     10981        23.9630          61.47          58.67           7.40
     10982        23.9650          52.75          58.73           6.88
     10983        23.9670          54.76          58.80           7.01
     10984        23.9690          56.38          58.89           7.11
     10985        23.9710          57.65          58.99           7.20
     10986        23.9730          65.27          59.13           7.64
     10987        23.9750          68.39          59.32           7.83
     10988        23.9770          66.35          59.59           7.71
     10989        23.9790          68.73          60.01           7.83
     10990        23.9810          75.83          60.67           8.23
     10991        23.9830          66.68          61.70           7.72
     10992        23.9850          58.63          63.25           7.23
     10993        23.9870          58.85          65.43           7.27
     10994        23.9890          58.19          68.22           7.22
     10995        23.9910          60.40          71.41           7.35
     10996        23.9930          77.62          74.47           8.33
     10997        23.9950          88.86          76.50           8.93
     10998        23.9970          89.34          76.57           8.93
     10999        23.9990          71.39          74.66          11.42
     11000        24.0010          69.93          71.65          11.30
     11001        24.0030          59.80          68.45          10.46
     11002        24.0050          57.29          65.63          10.24
     11003        24.0070          59.35          63.42          10.41
     11004        24.0090          61.35          61.84          10.57
     11005        24.0110          53.19          60.78           9.85
     11006        24.0130          62.27          60.11          10.67
     11007        24.0150          67.78          59.69          11.13
     11008        24.0170          69.50          59.42          11.28
     11009        24.0190          64.58          59.23          10.87
     11010        24.0210          63.42          59.10          10.77
     11011        24.0230          61.38          59.00          10.58
     11012        24.0250          56.25          58.92          10.14
     11013        24.0270          59.72          58.85          10.45
     11014        24.0290          61.24          58.80          10.56
     11015        24.0310          70.61          58.76          11.36
     11016        24.0330          67.18          58.72          11.09
     11017        24.0350          65.11          58.69          10.91
     11018        24.0370          64.43          58.66          10.83
     11019        24.0390          73.55          58.64          11.58
     11020        24.0410          62.74          58.62          10.71
     11021        24.0430          59.78          58.60          10.46
     11022        24.0450          52.84          58.59           9.81
     11023        24.0470          46.58          58.57           9.22
     11024        24.0490          58.08          58.56          10.30
     11025        24.0510          62.12          58.55          10.66
     11026        24.0530          58.57          58.55          10.35
     11027        24.0550          47.70          58.54           9.21
     11028        24.0570          35.14          58.53           7.94
     11029        24.0590          48.79          58.53           9.45
     11030        24.0610          50.15          58.53           9.58
     11031        24.0630          52.34          58.52           9.78
     11032        24.0650          50.13          58.52           9.57
     11033        24.0670          54.91          58.52          10.03
     11034        24.0690          55.53          58.51          10.08
     11035        24.0710          52.27          58.51           9.76
     11036        24.0730          47.75          58.51           9.33
     11037        24.0750          63.84          58.51          10.76
     11038        24.0770          70.97          58.51          11.35
     11039        24.0790          55.66          58.51          10.09
     11040        24.0810          59.07          58.51          10.39
     11041        24.0830          52.22          58.51           9.76
     11042        24.0850          47.12          58.51           9.27
     11043        24.0870          57.59          58.51          10.25
     11044        24.0890          63.31          58.52          10.76
     11045        24.0910          61.78          58.52          10.63
     11046        24.0930          65.24          58.52          10.93
     11047        24.0950          59.75          58.52          10.46
     11048        24.0970          58.61          58.52          10.36
     11049        24.0990          58.67          58.52          10.37
     11050        24.1010          62.47          58.52          10.69
     11051        24.1030          65.72          58.53          10.96
     11052        24.1050          59.22          58.53          10.41
     11053        24.1070          60.46          58.53          10.52
     11054        24.1090          60.42          58.53          10.52
     11055        24.1110          63.59          58.54          10.78
     11056        24.1130          65.69          58.54          10.96
     11057        24.1150          54.01          58.54           9.92
     11058        24.1170          51.56          58.54           9.69
     11059        24.1190          55.78          58.55          10.07
     11060        24.1210          40.71          58.55           8.62
     11061        24.1230          47.03          58.55           9.14
     11062        24.1250          63.72          58.55          10.78
     11063        24.1270          62.80          58.56          10.67
     11064        24.1290          71.51          58.56          11.40
     11065        24.1310          57.46          58.56          10.25
     11066        24.1330          55.11          58.56          10.00
     11067        24.1350          57.54          58.57          10.10
     11068        24.1370          76.97          58.57          11.83
     11069        24.1390          68.17          58.57          11.14
     11070        24.1410          68.14          58.58          11.04
     11071        24.1430          42.07          58.58           8.77
     11072        24.1450          49.84          58.58           9.50
     11073        24.1470          60.25          58.59          10.50
     11074        24.1490          49.85          58.59           9.54
     11075        24.1510          44.57          58.59           9.03
     11076        24.1530          56.10          58.60          10.06
     11077        24.1550          66.55          58.60          10.99
     11078        24.1570          51.90          58.60           9.75
     11079        24.1590          60.20          58.61          10.46
     11080        24.1610          68.63          58.61          11.19
     11081        24.1630          57.17          58.61          10.22
     11082        24.1650          51.25          58.62           9.69
     11083        24.1670          49.97          58.62           9.56
     11084        24.1690          51.49          58.62           9.70
     11085        24.1710          66.34          58.63          10.99
     11086        24.1730          69.49          58.63          11.21
     11087        24.1750          52.00          58.64           9.75
     11088        24.1770          55.44          58.64          10.07
     11089        24.1790          55.05          58.64          10.04
     11090        24.1810          53.39          58.65           9.87
     11091        24.1830          43.30          58.65           8.90
     11092        24.1850          49.26          58.66           9.45
     11093        24.1870          65.53          58.66          10.95
     11094        24.1890          72.07          58.67          11.49
     11095        24.1910          62.17          58.67          10.59
     11096        24.1930          45.39          58.68           9.11
     11097        24.1950          59.07          58.68          10.36
     11098        24.1970          66.70          58.69          11.02
     11099        24.1990          54.92          58.69          10.03
     11100        24.2010          57.55          58.70          10.26
     11101        24.2030          58.34          58.71          10.32
     11102        24.2050          57.76          58.71          10.25
     11103        24.2070          61.13          58.72          10.53
     11104        24.2090          55.54          58.73          10.02
     11105        24.2110          68.63          58.73          11.19
     11106        24.2130          61.08          58.74          10.58
     11107        24.2150          62.90          58.75          10.73
     11108        24.2170          68.72          58.76          11.21
     11109        24.2190          74.33          58.77          11.67
     11110        24.2210          61.08          58.78          10.53
     11111        24.2230          54.28          58.79           9.92
     11112        24.2250          66.29          58.80          11.01
     11113        24.2270          61.75          58.81          10.63
     11114        24.2290          66.04          58.83          10.99
     11115        24.2310          68.25          58.84          11.18
     11116        24.2330          66.55          58.86          11.04
     11117        24.2350          64.41          58.87          10.85
     11118        24.2370          52.71          58.89           9.80
     11119        24.2390          49.96          58.91           9.51
     11120        24.2410          62.74          58.94          10.71
     11121        24.2430          59.76          58.96          10.46
     11122        24.2450          57.91          58.99          10.29
     11123        24.2470          58.76          59.02          10.37
     11124        24.2490          63.59          59.06          10.79
     11125        24.2510          61.28          59.09          10.58
     11126        24.2530          51.14          59.14           9.68
     11127        24.2550          57.46          59.19          10.19
     11128        24.2570          65.88          59.24          10.93
     11129        24.2590          44.20          59.31           8.97
     11130        24.2610          45.29          59.38           9.00
     11131        24.2630          59.48          59.47          10.42
     11132        24.2650          53.88          59.58           9.92
     11133        24.2670          52.70          59.70           9.80
     11134        24.2690          48.05          59.84           9.35
     11135        24.2710          54.01          60.02           9.93
     11136        24.2730          47.78          60.24           9.35
     11137        24.2750          53.88          60.52           9.93
     11138        24.2770          55.32          60.90          10.06
     11139        24.2790          58.07          61.44          10.27
     11140        24.2810          65.39          62.28          10.91
     11141        24.2830          51.99          63.59           9.76
     11142        24.2850          59.70          65.65          10.43
     11143        24.2870          64.82          68.77          10.87
     11144        24.2890          66.30          73.21          10.93
     11145        24.2910          97.06          79.02          13.32
     11146        24.2930         111.93          85.87          14.32
     11147        24.2950         118.71          92.83          14.74
     11148        24.2970         118.76          98.14          14.75
     11149        24.2990         102.03          99.70          13.65
     11150        24.3010          80.29          96.74          12.07
     11151        24.3030          57.13          90.66          10.22
     11152        24.3050          61.14          83.58          10.52
     11153        24.3070          68.80          76.99          11.17
     11154        24.3090          51.93          71.60           9.75
     11155        24.3110          55.09          67.61          10.04
     11156        24.3130          58.60          64.85          10.36
     11157        24.3150          63.19          63.06          10.74
     11158        24.3170          62.14          61.92          10.61
     11159        24.3190          53.68          61.20           9.87
     11160        24.3210          67.72          60.71          11.13
     11161        24.3230          66.44          60.36          11.03
     11162        24.3250          57.38          60.10          10.21
     11163        24.3270          49.75          59.89           9.53
     11164        24.3290          58.76          59.72          10.37
     11165        24.3310          52.97          59.58           9.78
     11166        24.3330          42.58          59.46           8.79
     11167        24.3350          53.73          59.36           9.92
     11168        24.3370          56.28          59.27          10.15
     11169        24.3390          61.90          59.20          10.64
     11170        24.3410          67.75          59.13          11.14
     11171        24.3430          73.78          59.07          11.61
     11172        24.3450          74.93          59.02          11.67
     11173        24.3470          55.28          58.97          10.05
     11174        24.3490          56.71          58.93          10.15
     11175        24.3510          65.56          58.89          10.95
     11176        24.3530          61.90          58.85          10.64
     11177        24.3550          61.68          58.82          10.60
     11178        24.3570          55.96          58.79          10.11
     11179        24.3590          62.76          58.77          10.72
     11180        24.3610          63.73          58.74          10.79
     11181        24.3630          64.21          58.72          10.82
     11182        24.3650          52.88          58.70           9.83
     11183        24.3670          56.06          58.68          10.10
     11184        24.3690          60.32          58.66          10.47
     11185        24.3710          44.89          58.64           9.05
     11186        24.3730          47.60          58.62           9.29
     11187        24.3750          57.04          58.60          10.21
     11188        24.3770          53.96          58.59           9.94
     11189        24.3790          55.27          58.57          10.05
     11190        24.3810          53.43          58.56           9.88
     11191        24.3830          59.11          58.54          10.40
     11192        24.3850          54.73          58.53          10.01
     11193        24.3870          53.92          58.51           9.93
     11194        24.3890          57.89          58.50          10.29
     11195        24.3910          62.08          58.49          10.64
     11196        24.3930          70.74          58.48          11.38
     11197        24.3950          79.55          58.46          12.02
     11198        24.3970          81.68          58.45          12.13
     11199        24.3990          53.61          58.44           9.91
     11200        24.4010          52.58          58.43           9.81
     11201        24.4030          58.28          58.42          10.32
     11202        24.4050          56.72          58.40          10.15
     11203        24.4070          49.32          58.39           9.48
     11204        24.4090          65.94          58.38          10.96
     11205        24.4110          75.33          58.37          11.74
     11206        24.4130          64.87          58.36          10.88
     11207        24.4150          53.37          58.35           9.87
     11208        24.4170          49.66          58.34           9.54
     11209        24.4190          53.78          58.33           9.92
     11210        24.4210          54.21          58.32           9.96
     11211        24.4230          55.10          58.30          10.04
     11212        24.4250          61.95          58.29          10.64
     11213        24.4270          71.15          58.28          11.41
     11214        24.4290          70.86          58.27          11.37
     11215        24.4310          55.03          58.26          10.02
     11216        24.4330          46.47          58.25           9.23
     11217        24.4350          52.32          58.24           9.77
     11218        24.4370          58.45          58.23          10.35
     11219        24.4390          63.66          58.22          10.75
     11220        24.4410          65.90          58.20          10.88
     11221        24.4430          51.99          58.19           9.71
     11222        24.4450          64.54          58.18          10.87
     11223        24.4470          60.26          58.17          10.50
     11224        24.4490          62.15          58.16          10.65
     11225        24.4510          66.68          58.15          11.04
     11226        24.4530          54.56          58.14           9.98
     11227        24.4550          48.93          58.12           9.46
     11228        24.4570          53.31          58.11           9.88
     11229        24.4590          54.08          58.10           9.95
     11230        24.4610          46.04          58.09           9.17
     11231        24.4630          47.71          58.08           9.30
     11232        24.4650          53.01          58.07           9.81
     11233        24.4670          53.16          58.05           9.75
     11234        24.4690          66.29          58.04          10.97
     11235        24.4710          53.26          58.03           9.87
     11236        24.4730          52.69          58.02           9.81
     11237        24.4750          58.57          58.01          10.25
     11238        24.4770          73.07          57.99          11.54
     11239        24.4790          61.71          57.98          10.62
     11240        24.4810          65.44          57.97          10.94
     11241        24.4830          67.12          57.96          11.09
     11242        24.4850          61.19          57.95          10.57
     11243        24.4870          53.83          57.93           9.93
     11244        24.4890          54.91          57.92          10.03
     11245        24.4910          53.52          57.91           9.89
     11246        24.4930          56.02          57.90          10.11
     11247        24.4950          62.71          57.88          10.71
     11248        24.4970          60.46          57.87          10.52
     11249        24.4990          66.55          57.86          11.02
     11250        24.5010          67.41          57.85          11.06
     11251        24.5030          51.26          57.83           9.69
     11252        24.5050          59.35          57.82          10.38
     11253        24.5070          71.20          57.81          11.42
     11254        24.5090          67.09          57.79          11.08
     11255        24.5110          56.41          57.78          10.10
     11256        24.5130          49.80          57.77           9.48
     11257        24.5150          63.87          57.76          10.81
     11258        24.5170          56.32          57.74          10.14
     11259        24.5190          58.94          57.73          10.33
     11260        24.5210          64.20          57.72          10.77
     11261        24.5230          47.15          57.71           9.29
     11262        24.5250          51.46          57.70           9.70
     11263        24.5270          57.69          57.68          10.28
     11264        24.5290          64.27          57.67          10.84
     11265        24.5310          64.30          57.66          10.84
     11266        24.5330          61.31          57.65          10.59
     11267        24.5350          70.71          57.64          11.37
     11268        24.5370          71.31          57.63          11.40
     11269        24.5390          51.80          57.62           9.70
     11270        24.5410          45.06          57.61           9.06
     11271        24.5430          60.63          57.60          10.51
     11272        24.5450          71.88          57.59          11.47
     11273        24.5470          62.13          57.59          10.64
     11274        24.5490          56.26          57.58          10.12
     11275        24.5510          64.32          57.58          10.84
     11276        24.5530          60.02          57.58          10.49
     11277        24.5550          58.19          57.57          10.31
     11278        24.5570          50.64          57.58           9.63
     11279        24.5590          53.57          57.58           9.90
     11280        24.5610          67.28          57.59          11.08
     11281        24.5630          72.63          57.60          11.52
     11282        24.5650          59.52          57.61          10.44
     11283        24.5670          54.98          57.64          10.04
     11284        24.5690          61.84          57.66          10.62
     11285        24.5710          67.14          57.71          11.07
     11286        24.5730          56.11          57.76          10.14
     11287        24.5750          58.37          57.84          10.33
     11288        24.5770          60.04          57.96          10.48
     11289        24.5790          54.52          58.14           9.99
     11290        24.5810          59.53          58.43          10.44
     11291        24.5830          60.00          58.90          10.47
     11292        24.5850          51.07          59.62           9.67
     11293        24.5870          49.03          60.70           9.48
     11294        24.5890          56.74          62.16          10.17
     11295        24.5910          63.14          63.99          10.74
     11296        24.5930          68.23          66.01          11.14
     11297        24.5950          75.35          67.85          11.71
     11298        24.5970          65.95          68.94          10.98
     11299        24.5990          81.23          68.78          12.18
     11300        24.6010          85.42          67.45          12.50
     11301        24.6030          72.42          65.49          11.52
     11302        24.6050          71.18          63.44          11.41
     11303        24.6070          68.65          61.64          11.18
     11304        24.6090          59.05          60.22          10.39
     11305        24.6110          67.28          59.19          11.10
     11306        24.6130          68.21          58.48          11.18
     11307        24.6150          62.45          58.02          10.68
     11308        24.6170          56.07          57.72          10.13
     11309        24.6190          59.71          57.52          10.44
     11310        24.6210          65.65          57.38          10.96
     11311        24.6230          68.45          57.27          11.18
     11312        24.6250          74.59          57.18          11.68
     11313        24.6270          63.63          57.10          10.78
     11314        24.6290          55.37          57.04          10.07
     11315        24.6310          62.05          56.98          10.61
     11316        24.6330          70.68          56.93          11.36
     11317        24.6350          65.92          56.88          10.97
     11318        24.6370          67.50          56.84          11.09
     11319        24.6390          56.30          56.80          10.15
     11320        24.6410          57.92          56.76          10.30
     11321        24.6430          63.01          56.73          10.72
     11322        24.6450          70.45          56.69          11.35
     11323        24.6470          69.37          56.66          11.27
     11324        24.6490          61.95          56.63          10.54
     11325        24.6510          42.34          56.60           8.80
     11326        24.6530          51.27          56.58           9.66
     11327        24.6550          58.32          56.55          10.33
     11328        24.6570          54.27          56.52           9.97
     11329        24.6590          49.64          56.50           9.52
     11330        24.6610          49.48          56.47           9.49
     11331        24.6630          63.42          56.44          10.76
     11332        24.6650          61.00          56.42          10.50
     11333        24.6670          53.63          56.40           9.84
     11334        24.6690          65.41          56.37          10.93
     11335        24.6710          57.18          56.35          10.23
     11336        24.6730          54.20          56.33           9.96
     11337        24.6750          60.68          56.30          10.50
     11338        24.6770          66.99          56.28          11.05
     11339        24.6790          55.38          56.26          10.07
     11340        24.6810          53.81          56.24           9.93
     11341        24.6830          53.56          56.21           9.90
     11342        24.6850          51.94          56.19           9.75
     11343        24.6870          62.16          56.17          10.63
     11344        24.6890          73.41          56.15          11.59
     11345        24.6910          69.80          56.13          11.30
     11346        24.6930          69.07          56.11          11.24
     11347        24.6950          58.75          56.09          10.36
     11348        24.6970          51.73          56.07           9.73
     11349        24.6990          54.30          56.05           9.95
     11350        24.7010          53.88          56.03           9.88
     11351        24.7030          49.34          56.00           9.45
     11352        24.7050          64.05          55.98          10.83
     11353        24.7070          65.45          55.96          10.94
     11354        24.7090          66.30          55.94          11.01
     11355        24.7110          64.75          55.93          10.88
     11356        24.7130          62.42          55.91          10.68
     11357        24.7150          61.60          55.89          10.60
     11358        24.7170          67.48          55.87          11.11
     11359        24.7190          58.47          55.85          10.32
     11360        24.7210          49.41          55.83           9.51
     11361        24.7230          51.49          55.81           9.70
     11362        24.7250          51.40          55.79           9.69
     11363        24.7270          48.55          55.77           9.42
     11364        24.7290          48.19          55.76           9.37
     11365        24.7310          43.76          55.74           8.94
     11366        24.7330          52.25          55.72           9.78
     11367        24.7350          62.35          55.70          10.67
     11368        24.7370          60.93          55.68          10.50
     11369        24.7390          42.56          55.67           8.83
     11370        24.7410          48.00          55.65           9.33
     11371        24.7430          58.37          55.63          10.34
     11372        24.7450          61.91          55.62          10.62
     11373        24.7470          63.51          55.60          10.73
     11374        24.7490          46.23          55.58           9.20
     11375        24.7510          56.56          55.57          10.08
     11376        24.7530          71.34          55.55          11.42
     11377        24.7550          53.14          55.53           9.80
     11378        24.7570          43.34          55.52           8.88
     11379        24.7590          49.83          55.50           9.55
     11380        24.7610          52.49          55.49           9.78
     11381        24.7630          59.73          55.47          10.46
     11382        24.7650          54.35          55.46           9.96
     11383        24.7670          59.52          55.44          10.36
     11384        24.7690          71.69          55.43          11.43
     11385        24.7710          59.00          55.42          10.39
     11386        24.7730          54.68          55.40          10.01
     11387        24.7750          49.84          55.39           9.55
     11388        24.7770          48.29          55.38           9.40
     11389        24.7790          52.94          55.36           9.84
     11390        24.7810          55.79          55.35          10.10
     11391        24.7830          54.06          55.34           9.94
     11392        24.7850          59.27          55.33          10.41
     11393        24.7870          57.64          55.32          10.27
     11394        24.7890          49.50          55.31           9.50
     11395        24.7910          51.47          55.29           9.64
     11396        24.7930          61.76          55.28          10.61
     11397        24.7950          55.53          55.27          10.06
     11398        24.7970          55.26          55.26          10.03
     11399        24.7990          61.28          55.26          10.57
     11400        24.8010          55.31          55.25          10.03
     11401        24.8030          45.35          55.24           9.09
     11402        24.8050          45.44          55.23           9.09
     11403        24.8070          53.23          55.22           9.86
     11404        24.8090          53.06          55.22           9.83
     11405        24.8110          60.02          55.21          10.37
     11406        24.8130          73.19          55.20          11.53
     11407        24.8150          59.86          55.20          10.44
     11408        24.8170          60.05          55.19          10.46
     11409        24.8190          60.02          55.19          10.44
     11410        24.8210          46.11          55.18           9.15
     11411        24.8230          47.40          55.18           9.23
     11412        24.8250          59.14          55.18          10.38
     11413        24.8270          59.66          55.17          10.42
     11414        24.8290          62.53          55.17          10.66
     11415        24.8310          53.91          55.17           9.91
     11416        24.8330          53.53          55.17           9.87
     11417        24.8350          53.96          55.17           9.92
     11418        24.8370          47.96          55.17           9.33
     11419        24.8390          45.02          55.17           9.04
     11420        24.8410          58.46          55.18          10.30
     11421        24.8430          67.42          55.18          11.08
     11422        24.8450          59.64          55.19          10.39
     11423        24.8470          51.63          55.19           9.69
     11424        24.8490          54.13          55.20           9.92
     11425        24.8510          50.19          55.21           9.56
     11426        24.8530          54.67          55.22           9.98
     11427        24.8550          56.74          55.23          10.16
     11428        24.8570          55.91          55.24          10.08
     11429        24.8590          44.97          55.26           9.04
     11430        24.8610          43.93          55.28           8.92
     11431        24.8630          53.60          55.30           9.89
     11432        24.8650          49.00          55.32           9.42
     11433        24.8670          43.65          55.35           8.91
     11434        24.8690          51.35          55.39           9.67
     11435        24.8710          53.28          55.44           9.86
     11436        24.8730          57.45          55.50          10.21
     11437        24.8750          67.47          55.59          11.09
     11438        24.8770          59.73          55.73          10.40
     11439        24.8790          57.25          55.94          10.15
     11440        24.8810          65.07          56.24          10.86
     11441        24.8830          56.44          56.69          10.14
     11442        24.8850          61.26          57.27          10.57
     11443        24.8870          56.65          57.98          10.16
     11444        24.8890          63.82          58.74          10.71
     11445        24.8910          80.32          59.41          12.10
     11446        24.8930          71.20          59.77          11.39
     11447        24.8950          59.90          59.68          10.43
     11448        24.8970          56.70          59.18          10.15
     11449        24.8990          62.03          58.48          10.62
     11450        24.9010          53.65          57.76           9.88
     11451        24.9030          55.60          57.14          10.04
     11452        24.9050          61.34          56.66          10.56
     11453        24.9070          61.82          56.32          10.59
     11454        24.9090          67.97          56.10          11.12
     11455        24.9110          57.32          55.96          10.22
     11456        24.9130          59.98          55.89          10.43
     11457        24.9150          61.84          55.85          10.57
     11458        24.9170          54.54          55.83           9.94
     11459        24.9190          59.94          55.82          10.43
     11460        24.9210          53.21          55.83           9.85
     11461        24.9230          54.45          55.84           9.97
     11462        24.9250          50.32          55.85           9.58
     11463        24.9270          47.06          55.87           9.26
     11464        24.9290          46.55          55.89           9.20
     11465        24.9310          51.00          55.92           9.64
     11466        24.9330          53.13          55.95           9.83
     11467        24.9350          60.04          55.98          10.45
     11468        24.9370          55.69          56.01          10.01
     11469        24.9390          47.25          56.04           9.24
     11470        24.9410          57.62          56.08          10.25
     11471        24.9430          66.49          56.11          10.96
     11472        24.9450          71.25          56.15          11.34
     11473        24.9470          56.10          56.19          10.11
     11474        24.9490          63.31          56.24          10.73
     11475        24.9510          74.65          56.28          11.66
     11476        24.9530          73.09          56.33          11.52
     11477        24.9550          62.68          56.37          10.69
     11478        24.9570          63.82          56.42          10.79
     11479        24.9590          60.93          56.47          10.53
     11480        24.9610          50.76          56.52           9.59
     11481        24.9630          48.37          56.57           9.36
     11482        24.9650          54.02          56.63           9.91
     11483        24.9670          61.73          56.69          10.50
     11484        24.9690          73.82          56.74          11.56
     11485        24.9710          51.17          56.80           9.62
     11486        24.9730          45.12          56.86           9.05
     11487        24.9750          59.31          56.92          10.37
     11488        24.9770          64.32          56.99          10.82
     11489        24.9790          55.78          57.05          10.08
     11490        24.9810          52.52          57.12           9.78
     11491        24.9830          49.97          57.19           9.55
     11492        24.9850          47.46          57.26           9.29
     11493        24.9870          50.57          57.33           9.55
     11494        24.9890          63.12          57.40          10.73
     11495        24.9910          59.13          57.48          10.38
     11496        24.9930          58.24          57.55          10.29
     11497        24.9950          61.58          57.63          10.59
     11498        24.9970          51.90          57.71           9.70
     11499        24.9990          44.06          57.79           8.96

# 12. STRUCTURE-FACTOR LIST

loop_
 _refln_index_h
 _refln_index_k
 _refln_index_l
 _refln_F_squared_calc
 _refln_F_squared_meas
 _refln_observed_status
 _refln_d_spacing
   0   0   1     4465.97     4513.89 o  6.296582
   1   0   1     4415.54     4557.77 o  4.452356
   1   1   1     4503.73     4820.62 o  3.635333
   0   0   2    33269.51    31859.63 o  3.148291
   1   0   2     4130.03     4232.51 o  2.815917
   1   1   2     4892.30     4890.95 o  2.570569
   2   0   2    14316.84    14434.21 o  2.226178
   2   1   2     2962.98     2851.40 o  2.098861
   0   0   3      423.80      407.84 o  2.098861
   1   0   3     1036.37      867.84 o  1.991154
   1   1   3       40.53       30.72 <  1.898491
   2   2   2     6665.08     5868.88 o  1.817667
   2   0   3      753.68      683.96 o  1.746358
   2   1   3     1238.57     1118.02 o  1.682832
   0   0   4     4941.75     4558.59 o  1.574146
   1   0   4     2156.40     1981.19 o  1.527146
   2   2   3      743.74      683.31 o  1.527146
   1   1   4     2352.73     2382.74 o  1.484119
   3   0   3      632.02      640.08 o  1.484119
   3   1   3      143.26      179.40 o  1.444535
   2   0   4     2354.87     2330.68 o  1.407959
   2   1   4     1184.39     1186.11 o  1.374027
   3   2   3      586.93      541.56 o  1.342436
   2   2   4     1224.45     1074.69 o  1.285284
   0   0   5       26.11       26.42 o  1.259316
   3   0   4      588.01      594.98 o  1.259316
   1   0   5       92.26       97.77 o  1.234861
   3   1   4      665.40      705.16 o  1.234861
   3   3   3      214.13      361.68 o  1.211778
   1   1   5       36.98       62.46 o  1.211778
   2   0   5      100.14       74.53 o  1.169246
   3   2   4      392.85      292.37 o  1.169246
   2   1   5      154.89      178.59 o  1.149593
   4   0   4      447.94      530.90 o  1.113089
   4   1   4      313.18      243.87 o  1.096094
   2   2   5      128.55      100.10 o  1.096094
   3   3   4      268.92      227.14 o  1.079855
   3   0   5      146.98      124.15 o  1.079855
   3   1   5      107.09       74.12 <  1.064317
   4   2   4      274.61      228.49 o  1.049430
   0   0   6      687.04      571.66 o  1.049430
   1   0   6      506.61      499.79 o  1.035152
   3   2   5      130.66      128.25 o  1.021441
   1   1   6      457.52      449.08 o  1.021441
   2   0   6      333.84      253.10 <  0.995577
   4   3   4      135.90       92.16 o  0.983361
   4   0   5      106.37       72.13 o  0.983361
   2   1   6      257.10      174.34 o  0.983361
   4   1   5      111.15      131.23 <  0.971584
   3   3   5       84.30       75.57 <  0.960220

