
#=======================================================================
data_global
#=======================================================================

_audit_creation_method                   'Jana2006 Version : 28/02/2013'


# 1. PROCESSING SUMMARY (IUCr Office Use Only)

_journal_date_recd_electronic            ?
_journal_date_to_coeditor                ?
_journal_date_from_coeditor              ?
_journal_date_accepted                   ?
_journal_date_printers_first             ?
_journal_date_printers_final             ?
_journal_date_proofs_out                 ?
_journal_date_proofs_in                  ?
_journal_coeditor_name                   ?
_journal_coeditor_code                   ?
_journal_coeditor_notes
; ?
;
_journal_techeditor_code                 ?
_journal_paper_category                  ?
_journal_techeditor_notes
; ?
;
_journal_coden_ASTM                      ?
_journal_name_full                       'Acta Crystallographica Section C'
_journal_year                            ?
_journal_volume                          ?
_journal_issue                           ?
_journal_page_first                      ?
_journal_page_last                       ?
_journal_suppl_publ_number               ?
_journal_suppl_publ_pages                ?

#=======================================================================

# 2. SUBMISSION DETAILS

_publ_contact_author_name                ?
_publ_contact_author_address
; ?
;
_publ_contact_author_email               ?
_publ_contact_author_fax                 ?
_publ_contact_author_phone               ?

_publ_requested_journal                  'Acta Crystallographica Section C'
_publ_requested_category                 ?

_publ_contact_letter
; ?
;

#=======================================================================

# 3. TITLE AND AUTHOR LIST

_publ_section_title
; ?
;
_publ_section_title_footnote
; ?
;
loop_
 _publ_author_name
 _publ_author_footnote
 _publ_author_address
; ?      # name
;
; ?      # footnote
;
; ?      # address
;

#=======================================================================

# 4. TEXT

_publ_section_synopsis
; ?
;
_publ_section_abstract
; ?
;
_publ_section_comment
; ?
;
_publ_section_introduction
; ?
;
_publ_section_experimental
; ?
;
_publ_section_exptl_prep
; ?
;
_publ_section_exptl_refinement
; ?
;
_publ_section_exptl_solution
; ?
;
_publ_section_discussion
; ?
;
_publ_section_acknowledgements
; ?
;
_publ_section_references
;
;
_publ_section_figure_captions
; ?
;
_publ_section_table_legends
; ?
;

#=======================================================================
data_I
#=======================================================================

# 5. CHEMICAL DATA

_chemical_name_systematic
; ?
;
_chemical_name_common                    ?
_chemical_formula_moiety                 ?
_chemical_formula_structural             ?
_chemical_formula_analytical             ?
_chemical_formula_iupac                  ?
_chemical_formula_sum                    'Cs1 I3 Pb1'
_chemical_formula_weight                 720.8
_chemical_melting_point                  ?
_chemical_compound_source                ?
_chemical_absolute_configuration         .

#=======================================================================

# 6. POWDER SPECIMEN AND CRYSTAL DATA

_symmetry_cell_setting                   orthorhombic
_symmetry_space_group_name_H-M           'P b n m'
_symmetry_space_group_name_Hall          '-P -2xab;-2yabc;-2zc'
_symmetry_Int_Tables_number              62

loop_
 _symmetry_equiv_pos_site_id
 _symmetry_equiv_pos_as_xyz
 1   x,y,z
 2   -x,-y,z+1/2
 3   -x+1/2,y+1/2,-z+1/2
 4   x+1/2,-y+1/2,-z
 5   -x,-y,-z
 6   x,y,-z+1/2
 7   x+1/2,-y+1/2,z+1/2
 8   -x+1/2,y+1/2,z

_cell_length_a                           8.61979(6)
_cell_length_b                           8.85176(6)
_cell_length_c                           12.50128(7)
_cell_angle_alpha                        90
_cell_angle_beta                         90
_cell_angle_gamma                        90
_cell_volume                             953.852(11)

_cell_formula_units_Z                    4
_cell_measurement_temperature            300
_cell_special_details
; ?
;

_exptl_crystal_density_diffrn            5.0194
_exptl_crystal_density_meas              ?
_exptl_crystal_density_method            ?
_exptl_crystal_F_000                     1184

_pd_spec_size_axial                      ?
_pd_spec_size_equat                      ?
_pd_spec_size_thick                      ?
_pd_spec_mounting                        ?
_pd_spec_mount_mode                      ?
_pd_spec_shape                           ?
_pd_char_particle_morphology             ?
_pd_char_colour                          ?
_pd_prep_cool_rate                       ?
_pd_prep_pressure                        ?
_pd_prep_temperature                     ?

_exptl_absorpt_coefficient_mu            7.421
_exptl_absorpt_correction_type           ?
_exptl_absorpt_process_details           ?
_exptl_absorpt_correction_T_min          ?
_exptl_absorpt_correction_T_max          ?

loop_
 _space_group_symop_id
 _space_group_symop_operation_xyz
 1   x,y,z
 2   -x,-y,z+1/2
 3   -x+1/2,y+1/2,-z+1/2
 4   x+1/2,-y+1/2,-z
 5   -x,-y,-z
 6   x,y,-z+1/2
 7   x+1/2,-y+1/2,z+1/2
 8   -x+1/2,y+1/2,z

#=======================================================================

# 7. EXPERIMENTAL DATA

_exptl_special_details                   ?
_pd_instr_location
; ?
;
_pd_calibration_special_details
; ?
;

_diffrn_ambient_temperature              300
_diffrn_source                           ?
_diffrn_source_target                    ?
_diffrn_source_type                      ?
_diffrn_radiation_type                   ?
_diffrn_radiation_wavelength             0.41391
_diffrn_radiation_monochromator          ?
_diffrn_measurement_device               ?
_diffrn_measurement_device_type          ?
_diffrn_detector                         ?
_diffrn_detector_type                    ?

_pd_meas_scan_method                     ?
_pd_meas_special_details
; ?
;
_pd_meas_number_of_points                12748
_pd_meas_2theta_range_min                0.500
_pd_meas_2theta_range_max                25.994
_pd_meas_2theta_range_inc                0.002

_diffrn_radiation_probe                  X-ray

#=======================================================================

# 8. REFINEMENT DATA

_pd_proc_ls_special_details
; ?
;
_pd_proc_ls_profile_function             'Pseudo-Voigt'
_pd_proc_ls_background_function          '30 Legendre polynoms'
_pd_proc_ls_pref_orient_corr             none
_pd_proc_ls_prof_R_factor                0.0870
_pd_proc_ls_prof_wR_factor               0.1114
_pd_proc_ls_prof_wR_expected             0.0929

_refine_special_details
; ?
;

_refine_ls_R_factor_gt                   0.0436
_refine_ls_wR_factor_gt                  0.0439
_refine_ls_R_factor_all                  0.0520
_refine_ls_wR_factor_all                 0.0454
_refine_ls_goodness_of_fit_all           1.20
_refine_ls_restrained_S_gt               ?
_refine_ls_restrained_S_all              ?
_refine_ls_number_parameters             63
_refine_ls_number_restraints             0
_refine_ls_number_constraints            0
_refine_ls_weighting_scheme              sigma
_refine_ls_weighting_details             ?
_refine_ls_hydrogen_treatment            ?
_refine_ls_shift/su_max                  0.0428
_refine_ls_shift/su_mean                 0.0051
_refine_diff_density_max                 ?
_refine_diff_density_min                 ?
_refine_ls_extinction_method             ?
_refine_ls_extinction_coef               ?

_pd_proc_2theta_range_min                2.002
_pd_proc_2theta_range_max                19.998
_pd_proc_2theta_range_inc                0.002
_pd_proc_wavelength                      ?

_pd_block_diffractogram_id               ?

loop_
_pd_proc_info_excluded_regions
 'from 0.5 to 2.000'
 'from 20 to 26.020'
_pd_proc_info_data_reduction             ?

loop_
 _atom_type_symbol
 _atom_type_scat_dispersion_real
 _atom_type_scat_dispersion_imag
 _atom_type_scat_source
 _atom_type_scat_Cromer_Mann_a1
 _atom_type_scat_Cromer_Mann_b1
 _atom_type_scat_Cromer_Mann_a2
 _atom_type_scat_Cromer_Mann_b2
 _atom_type_scat_Cromer_Mann_a3
 _atom_type_scat_Cromer_Mann_b3
 _atom_type_scat_Cromer_Mann_a4
 _atom_type_scat_Cromer_Mann_b4
 _atom_type_scat_Cromer_Mann_c
 Cs  -1.4654  0.8159
 'International Tables Vol C tables 4.2.6.8 and 6.1.1.4'
20.3892 3.569 19.106199 0.3107 10.662 24.387899 1.4953 213.904007 3.3352
 I   -1.8899  0.6972
 'International Tables Vol C tables 4.2.6.8 and 6.1.1.4'
20.1472 4.347 18.9949 0.3814 7.5138 27.766001 2.2735 66.877602 4.0712
 Pb  -0.6121  4.2687
 'International Tables Vol C tables 4.2.6.8 and 6.1.1.4'
31.061701 0.6902 13.0637 2.3576 18.441999 8.618 5.9696 47.2579 13.4118

_computing_data_collection               ?
_computing_cell_refinement               ?
_computing_data_reduction                ?
_computing_structure_solution            ?
_computing_structure_refinement          ?
_computing_molecular_graphics            ?
_computing_publication_material          ?

#=======================================================================

# 9. ATOMIC COORDINATES AND DISPLACEMENT PARAMETERS

loop_
 _atom_site_label
 _atom_site_type_symbol
 _atom_site_fract_x
 _atom_site_fract_y
 _atom_site_fract_z
 _atom_site_adp_type
 _atom_site_U_iso_or_equiv
 _atom_site_site_symmetry_multiplicity
 _atom_site_occupancy
 _atom_site_calc_flag
 _atom_site_refinement_flags
 _atom_site_disorder_assembly
 _atom_site_disorder_group
  Pb Pb 0 0 0.5 Uani 0.0307(10) 4 1 d . . .
  Cs Cs -0.0165(6) 0.4451(4) 0.25 Uani 0.091(3) 4 1 d . . .
  I1 I 0.1973(3) 0.2993(3) 0.5306(2) Uani 0.0567(16) 8 1 d . . .
  I2 I -0.0631(5) -0.0017(6) 0.75 Uani 0.079(3) 4 1 d . . .

loop_
 _atom_site_aniso_label
 _atom_site_aniso_type_symbol
 _atom_site_aniso_U_11
 _atom_site_aniso_U_22
 _atom_site_aniso_U_33
 _atom_site_aniso_U_12
 _atom_site_aniso_U_13
 _atom_site_aniso_U_23
 Pb Pb 0.0435(17) 0.0230(17) 0.0255(18) 0.001(2) -0.006(2) 0.0026(19)
 Cs Cs 0.130(5) 0.092(5) 0.052(4) 0.049(5) 0 0
 I1 I 0.060(3) 0.041(2) 0.069(3) -0.021(2) -0.009(3) -0.004(2)
 I2 I 0.119(6) 0.113(5) 0.005(3) 0.007(5) 0 0

loop_
 _jana_atom_site_ADP_C_label
 _jana_atom_site_ADP_C_type_symbol
 _jana_atom_site_ADP_C_111
 _jana_atom_site_ADP_C_112
 _jana_atom_site_ADP_C_113
 _jana_atom_site_ADP_C_122
 _jana_atom_site_ADP_C_123
 _jana_atom_site_ADP_C_133
 _jana_atom_site_ADP_C_222
 _jana_atom_site_ADP_C_223
 _jana_atom_site_ADP_C_233
 _jana_atom_site_ADP_C_333
 ? ? ? ? ? ? ? ? ? ? ? ?

loop_
 _jana_atom_site_ADP_D_label
 _jana_atom_site_ADP_D_type_symbol
 _jana_atom_site_ADP_D_1111
 _jana_atom_site_ADP_D_1112
 _jana_atom_site_ADP_D_1113
 _jana_atom_site_ADP_D_1122
 _jana_atom_site_ADP_D_1123
 _jana_atom_site_ADP_D_1133
 _jana_atom_site_ADP_D_1222
 _jana_atom_site_ADP_D_1223
 _jana_atom_site_ADP_D_1233
 _jana_atom_site_ADP_D_1333
 _jana_atom_site_ADP_D_2222
 _jana_atom_site_ADP_D_2223
 _jana_atom_site_ADP_D_2233
 _jana_atom_site_ADP_D_2333
 _jana_atom_site_ADP_D_3333
 ? ? ? ? ? ? ? ? ? ? ? ? ? ? ? ? ?

loop_
 _jana_atom_site_ADP_E_label
 _jana_atom_site_ADP_E_type_symbol
 _jana_atom_site_ADP_E_11111
 _jana_atom_site_ADP_E_11112
 _jana_atom_site_ADP_E_11113
 _jana_atom_site_ADP_E_11122
 _jana_atom_site_ADP_E_11123
 _jana_atom_site_ADP_E_11133
 _jana_atom_site_ADP_E_11222
 _jana_atom_site_ADP_E_11223
 _jana_atom_site_ADP_E_11233
 _jana_atom_site_ADP_E_11333
 _jana_atom_site_ADP_E_12222
 _jana_atom_site_ADP_E_12223
 _jana_atom_site_ADP_E_12233
 _jana_atom_site_ADP_E_12333
 _jana_atom_site_ADP_E_13333
 _jana_atom_site_ADP_E_22222
 _jana_atom_site_ADP_E_22223
 _jana_atom_site_ADP_E_22233
 _jana_atom_site_ADP_E_22333
 _jana_atom_site_ADP_E_23333
 _jana_atom_site_ADP_E_33333
 ? ? ? ? ? ? ? ? ? ? ? ? ? ? ? ? ? ? ? ? ? ? ?

loop_
 _jana_atom_site_ADP_F_label
 _jana_atom_site_ADP_F_type_symbol
 _jana_atom_site_ADP_F_111111
 _jana_atom_site_ADP_F_111112
 _jana_atom_site_ADP_F_111113
 _jana_atom_site_ADP_F_111122
 _jana_atom_site_ADP_F_111123
 _jana_atom_site_ADP_F_111133
 _jana_atom_site_ADP_F_111222
 _jana_atom_site_ADP_F_111223
 _jana_atom_site_ADP_F_111233
 _jana_atom_site_ADP_F_111333
 _jana_atom_site_ADP_F_112222
 _jana_atom_site_ADP_F_112223
 _jana_atom_site_ADP_F_112233
 _jana_atom_site_ADP_F_112333
 _jana_atom_site_ADP_F_113333
 _jana_atom_site_ADP_F_122222
 _jana_atom_site_ADP_F_122223
 _jana_atom_site_ADP_F_122233
 _jana_atom_site_ADP_F_122333
 _jana_atom_site_ADP_F_123333
 _jana_atom_site_ADP_F_133333
 _jana_atom_site_ADP_F_222222
 _jana_atom_site_ADP_F_222223
 _jana_atom_site_ADP_F_222233
 _jana_atom_site_ADP_F_222333
 _jana_atom_site_ADP_F_223333
 _jana_atom_site_ADP_F_233333
 _jana_atom_site_ADP_F_333333
 ? ? ? ? ? ? ? ? ? ? ? ? ? ? ? ? ? ? ? ? ? ? ? ? ? ? ? ? ? ?


#=======================================================================

# 10. MOLECULAR GEOMETRY


loop_
 _geom_bond_atom_site_label_1
 _geom_bond_atom_site_label_2
 _geom_bond_site_symmetry_1
 _geom_bond_site_symmetry_2
 _geom_bond_distance
 _geom_bond_publ_flag
 ? ? ? ? ? ?

loop_
 _geom_angle_atom_site_label_1
 _geom_angle_atom_site_label_2
 _geom_angle_atom_site_label_3
 _geom_angle_site_symmetry_1
 _geom_angle_site_symmetry_2
 _geom_angle_site_symmetry_3
 _geom_angle
 _geom_angle_publ_flag
 ? ? ? ? ? ? ? ?

loop_
 _geom_torsion_atom_site_label_1
 _geom_torsion_atom_site_label_2
 _geom_torsion_atom_site_label_3
 _geom_torsion_atom_site_label_4
 _geom_torsion_site_symmetry_1
 _geom_torsion_site_symmetry_2
 _geom_torsion_site_symmetry_3
 _geom_torsion_site_symmetry_4
 _geom_torsion
 _geom_torsion_publ_flag
 ? ? ? ? ? ? ? ? ? ?

loop_
 _geom_hbond_atom_site_label_D
 _geom_hbond_atom_site_label_H
 _geom_hbond_atom_site_label_A
 _geom_hbond_site_symmetry_D
 _geom_hbond_site_symmetry_H
 _geom_hbond_site_symmetry_A
 _geom_hbond_distance_DH
 _geom_hbond_distance_HA
 _geom_hbond_distance_DA
 _geom_hbond_angle_DHA
 _geom_hbond_publ_flag
 ? ? ? ? ? ? ? ? ? ? ?


#=======================================================================

# 11. POWDER PROFILE

loop_
 _pd_proc_point_id
 _pd_proc_2theta_corrected
 _pd_proc_intensity_net
 _pd_calc_intensity_net
 _pd_proc_ls_weight
         1         2.0020          46.19          53.66           6.73
         2         2.0040          43.02          53.32           6.50
         3         2.0060          43.93          52.99           6.57
         4         2.0080          50.25          52.69           7.03
         5         2.0100          56.95          52.40           7.48
         6         2.0120          52.81          52.13           7.20
         7         2.0140          52.44          51.88           7.19
         8         2.0160          54.88          51.64           7.35
         9         2.0180          49.13          51.41           6.96
        10         2.0200          48.54          51.20           6.92
        11         2.0220          46.97          51.00           6.80
        12         2.0240          42.19          50.82           6.45
        13         2.0260          52.19          50.65           7.13
        14         2.0280          43.15          50.49           6.50
        15         2.0300          43.10          50.34           6.51
        16         2.0320          46.60          50.21           6.77
        17         2.0340          59.49          50.08           7.64
        18         2.0360          62.81          49.97           7.86
        19         2.0380          56.64          49.87           7.46
        20         2.0400          53.20          49.77           7.24
        21         2.0420          49.51          49.69           6.99
        22         2.0440          53.01          49.61           7.22
        23         2.0460          55.66          49.55           7.39
        24         2.0480          53.04          49.49           7.21
        25         2.0500          45.40          49.44           6.69
        26         2.0520          41.79          49.39           6.41
        27         2.0540          51.50          49.36           7.11
        28         2.0560          51.10          49.33           7.09
        29         2.0580          51.03          49.31           7.10
        30         2.0600          57.98          49.29           7.55
        31         2.0620          52.74          49.28           7.20
        32         2.0640          59.97          49.27           7.67
        33         2.0660          59.18          49.27           7.64
        34         2.0680          59.68          49.28           7.65
        35         2.0700          52.10          49.29           7.16
        36         2.0720          52.15          49.30           7.17
        37         2.0740          42.77          49.32           6.49
        38         2.0760          57.28          49.35           7.45
        39         2.0780          60.28          49.37           7.69
        40         2.0800          49.16          49.41           6.95
        41         2.0820          48.26          49.44           6.89
        42         2.0840          45.92          49.48           6.72
        43         2.0860          49.26          49.52           6.95
        44         2.0880          53.01          49.56           7.21
        45         2.0900          60.57          49.61           7.73
        46         2.0920          54.72          49.65           7.34
        47         2.0940          58.15          49.71           7.55
        48         2.0960          53.54          49.76           7.25
        49         2.0980          52.91          49.81           7.22
        50         2.1000          48.92          49.87           6.94
        51         2.1020          62.40          49.93           7.81
        52         2.1040          60.50          49.99           7.71
        53         2.1060          45.01          50.05           6.63
        54         2.1080          40.97          50.11           6.34
        55         2.1100          46.59          50.17           6.78
        56         2.1120          47.80          50.23           6.86
        57         2.1140          55.66          50.30           7.41
        58         2.1160          52.57          50.36           7.19
        59         2.1180          50.33          50.43           7.03
        60         2.1200          58.91          50.49           7.61
        61         2.1220          55.13          50.56           7.36
        62         2.1240          60.29          50.63           7.69
        63         2.1260          54.95          50.69           7.35
        64         2.1280          44.90          50.76           6.65
        65         2.1300          57.73          50.83           7.50
        66         2.1320          57.72          50.89           7.52
        67         2.1340          48.54          50.96           6.91
        68         2.1360          53.80          51.03           7.28
        69         2.1380          47.63          51.09           6.85
        70         2.1400          56.32          51.16           7.44
        71         2.1420          56.02          51.22           7.42
        72         2.1440          58.43          51.28           7.57
        73         2.1460          53.22          51.35           7.23
        74         2.1480          48.54          51.41           6.90
        75         2.1500          45.94          51.47           6.72
        76         2.1520          44.31          51.53           6.60
        77         2.1540          48.31          51.59           6.89
        78         2.1560          54.93          51.65           7.35
        79         2.1580          55.17          51.71           7.38
        80         2.1600          61.41          51.77           7.78
        81         2.1620          57.90          51.82           7.53
        82         2.1640          45.02          51.88           6.65
        83         2.1660          48.83          51.93           6.94
        84         2.1680          53.77          51.99           7.28
        85         2.1700          49.70          52.04           6.98
        86         2.1720          45.62          52.09           6.69
        87         2.1740          51.64          52.14           7.12
        88         2.1760          50.00          52.19           7.00
        89         2.1780          62.14          52.23           7.82
        90         2.1800          62.44          52.28           7.84
        91         2.1820          56.43          52.33           7.45
        92         2.1840          52.99          52.37           7.20
        93         2.1860          37.74          52.41           6.01
        94         2.1880          52.06          52.45           7.14
        95         2.1900          42.68          52.49           6.48
        96         2.1920          47.89          52.53           6.85
        97         2.1940          53.42          52.57           7.22
        98         2.1960          51.96          52.60           7.14
        99         2.1980          50.35          52.64           7.03
       100         2.2000          57.48          52.67           7.51
       101         2.2020          45.83          52.70           6.68
       102         2.2040          50.92          52.73           7.05
       103         2.2060          49.53          52.76           6.93
       104         2.2080          58.88          52.79           7.60
       105         2.2100          50.51          52.82           7.05
       106         2.2120          39.82          52.84           6.24
       107         2.2140          46.62          52.87           6.77
       108         2.2160          55.35          52.89           7.35
       109         2.2180          69.90          52.91           8.30
       110         2.2200          56.03          52.93           7.42
       111         2.2220          49.13          52.95           6.96
       112         2.2240          53.90          52.97           7.29
       113         2.2260          49.02          52.99           6.95
       114         2.2280          44.95          53.00           6.66
       115         2.2300          58.74          53.02           7.55
       116         2.2320          48.93          53.03           6.92
       117         2.2340          54.78          53.04           7.32
       118         2.2360          51.15          53.05           7.09
       119         2.2380          47.09          53.06           6.80
       120         2.2400          38.61          53.07           6.16
       121         2.2420          45.60          53.08           6.70
       122         2.2440          48.17          53.09           6.89
       123         2.2460          46.20          53.09           6.74
       124         2.2480          53.55          53.10           7.26
       125         2.2500          47.80          53.10           6.85
       126         2.2520          41.88          53.10           6.38
       127         2.2540          53.93          53.10           7.28
       128         2.2560          45.72          53.11           6.70
       129         2.2580          50.43          53.11           7.05
       130         2.2600          53.58          53.11           7.26
       131         2.2620          43.61          53.10           6.55
       132         2.2640          53.93          53.10           7.27
       133         2.2660          51.91          53.10           7.14
       134         2.2680          56.20          53.09           7.43
       135         2.2700          52.04          53.09           7.16
       136         2.2720          53.98          53.08           7.29
       137         2.2740          51.45          53.08           7.12
       138         2.2760          49.68          53.07           6.98
       139         2.2780          44.01          53.06           6.58
       140         2.2800          58.93          53.06           7.60
       141         2.2820          59.97          53.05           7.68
       142         2.2840          49.09          53.04           6.95
       143         2.2860          52.94          53.03           7.21
       144         2.2880          50.82          53.02           7.06
       145         2.2900          49.67          53.01           7.00
       146         2.2920          53.01          53.00           7.22
       147         2.2940          50.27          52.99           7.03
       148         2.2960          50.98          52.97           7.08
       149         2.2980          56.81          52.96           7.47
       150         2.3000          59.44          52.95           7.66
       151         2.3020          52.53          52.94           7.19
       152         2.3040          53.19          52.92           7.23
       153         2.3060          59.00          52.91           7.62
       154         2.3080          58.02          52.90           7.56
       155         2.3100          58.13          52.88           7.57
       156         2.3120          52.23          52.87           7.17
       157         2.3140          49.56          52.85           6.99
       158         2.3160          58.93          52.84           7.61
       159         2.3180          55.41          52.82           7.38
       160         2.3200          44.34          52.81           6.61
       161         2.3220          43.81          52.79           6.57
       162         2.3240          48.04          52.78           6.88
       163         2.3260          50.72          52.76           7.06
       164         2.3280          54.62          52.75           7.32
       165         2.3300          55.20          52.73           7.35
       166         2.3320          45.51          52.72           6.66
       167         2.3340          56.90          52.70           7.46
       168         2.3360          49.00          52.69           6.93
       169         2.3380          55.25          52.67           7.35
       170         2.3400          63.62          52.65           7.91
       171         2.3420          58.62          52.64           7.59
       172         2.3440          54.69          52.63           7.31
       173         2.3460          47.58          52.61           6.80
       174         2.3480          55.72          52.60           7.40
       175         2.3500          55.43          52.58           7.38
       176         2.3520          49.71          52.57           6.97
       177         2.3540          45.17          52.55           6.66
       178         2.3560          44.76          52.54           6.63
       179         2.3580          47.84          52.53           6.86
       180         2.3600          61.89          52.51           7.77
       181         2.3620          46.27          52.50           6.71
       182         2.3640          56.05          52.49           7.40
       183         2.3660          48.29          52.48           6.88
       184         2.3680          51.96          52.46           7.14
       185         2.3700          51.20          52.45           7.09
       186         2.3720          56.50          52.44           7.45
       187         2.3740          47.83          52.43           6.85
       188         2.3760          53.24          52.42           7.23
       189         2.3780          56.18          52.41           7.43
       190         2.3800          65.03          52.40           8.00
       191         2.3820          56.40          52.39           7.45
       192         2.3840          54.83          52.38           7.33
       193         2.3860          46.35          52.37           6.75
       194         2.3880          52.07          52.37           7.14
       195         2.3900          59.14          52.36           7.63
       196         2.3920          47.89          52.35           6.86
       197         2.3940          46.11          52.35           6.74
       198         2.3960          48.09          52.34           6.88
       199         2.3980          60.50          52.34           7.70
       200         2.4000          46.48          52.33           6.74
       201         2.4020          49.32          52.33           6.98
       202         2.4040          58.71          52.32           7.59
       203         2.4060          51.85          52.32           7.14
       204         2.4080          52.60          52.32           7.18
       205         2.4100          52.00          52.32           7.14
       206         2.4120          58.20          52.32           7.57
       207         2.4140          49.91          52.32           7.01
       208         2.4160          46.38          52.32           6.76
       209         2.4180          52.32          52.32           7.18
       210         2.4200          50.76          52.32           7.07
       211         2.4220          49.47          52.32           6.98
       212         2.4240          55.50          52.32           7.39
       213         2.4260          53.62          52.33           7.27
       214         2.4280          50.79          52.33           7.06
       215         2.4300          50.64          52.33           7.03
       216         2.4320          55.60          52.34           7.40
       217         2.4340          62.10          52.35           7.82
       218         2.4360          68.44          52.35           8.20
       219         2.4380          53.77          52.36           7.26
       220         2.4400          52.69          52.37           7.20
       221         2.4420          63.95          52.38           7.92
       222         2.4440          59.69          52.39           7.66
       223         2.4460          48.21          52.40           6.87
       224         2.4480          55.89          52.41           7.40
       225         2.4500          62.03          52.42           7.79
       226         2.4520          59.32          52.43           7.62
       227         2.4540          59.27          52.44           7.64
       228         2.4560          50.65          52.46           7.06
       229         2.4580          53.69          52.47           7.27
       230         2.4600          60.69          52.49           7.73
       231         2.4620          60.07          52.50           7.68
       232         2.4640          49.54          52.52           6.97
       233         2.4660          51.61          52.53           7.14
       234         2.4680          55.27          52.55           7.38
       235         2.4700          52.06          52.57           7.16
       236         2.4720          52.58          52.59           7.19
       237         2.4740          48.22          52.61           6.89
       238         2.4760          59.44          52.63           7.63
       239         2.4780          60.76          52.65           7.71
       240         2.4800          63.58          52.67           7.92
       241         2.4820          60.51          52.70           7.72
       242         2.4840          59.01          52.72           7.63
       243         2.4860          57.04          52.74           7.50
       244         2.4880          55.25          52.77           7.37
       245         2.4900          45.87          52.79           6.72
       246         2.4920          54.54          52.82           7.32
       247         2.4940          59.87          52.85           7.68
       248         2.4960          49.95          52.87           7.01
       249         2.4980          49.93          52.90           7.01
       250         2.5000          55.55          52.93           7.38
       251         2.5020          63.72          52.96           7.89
       252         2.5040          54.87          52.99           7.34
       253         2.5060          51.41          53.02           7.10
       254         2.5080          50.31          53.05           7.01
       255         2.5100          64.23          53.08           7.91
       256         2.5120          47.35          53.11           6.82
       257         2.5140          54.69          53.15           7.34
       258         2.5160          61.56          53.18           7.79
       259         2.5180          58.12          53.21           7.56
       260         2.5200          59.32          53.25           7.63
       261         2.5220          62.06          53.28           7.82
       262         2.5240          62.50          53.32           7.84
       263         2.5260          64.90          53.36           8.00
       264         2.5280          67.83          53.39           8.17
       265         2.5300          68.06          53.43           8.18
       266         2.5320          50.09          53.47           7.01
       267         2.5340          57.74          53.51           7.53
       268         2.5360          62.48          53.55           7.84
       269         2.5380          50.28          53.59           7.03
       270         2.5400          53.36          53.63           7.24
       271         2.5420          43.07          53.67           6.50
       272         2.5440          52.12          53.71           7.16
       273         2.5460          62.32          53.75           7.82
       274         2.5480          63.70          53.80           7.88
       275         2.5500          73.38          53.84           8.49
       276         2.5520          59.17          53.88           7.62
       277         2.5540          65.92          53.93           8.06
       278         2.5560          61.55          53.97           7.78
       279         2.5580          51.43          54.01           7.12
       280         2.5600          64.41          54.06           7.94
       281         2.5620          52.12          54.11           7.14
       282         2.5640          50.15          54.15           7.03
       283         2.5660          52.70          54.20           7.21
       284         2.5680          54.95          54.25           7.34
       285         2.5700          59.85          54.29           7.68
       286         2.5720          51.61          54.34           7.13
       287         2.5740          51.49          54.39           7.10
       288         2.5760          59.16          54.44           7.65
       289         2.5780          63.27          54.49           7.86
       290         2.5800          56.17          54.53           7.43
       291         2.5820          56.49          54.58           7.46
       292         2.5840          50.63          54.63           7.07
       293         2.5860          67.41          54.68           8.08
       294         2.5880          44.22          54.73           6.52
       295         2.5900          62.14          54.78           7.78
       296         2.5920          49.34          54.84           6.93
       297         2.5940          53.63          54.89           7.26
       298         2.5960          56.81          54.94           7.45
       299         2.5980          68.39          54.99           8.19
       300         2.6000          65.86          55.04           8.04
       301         2.6020          56.32          55.09           7.44
       302         2.6040          48.31          55.15           6.88
       303         2.6060          66.53          55.20           8.06
       304         2.6080          57.61          55.25           7.52
       305         2.6100          46.30          55.31           6.74
       306         2.6120          44.36          55.36           6.61
       307         2.6140          55.76          55.41           7.37
       308         2.6160          59.28          55.47           7.64
       309         2.6180          49.41          55.52           6.94
       310         2.6200          66.19          55.57           8.06
       311         2.6220          65.62          55.63           8.04
       312         2.6240          61.62          55.68           7.79
       313         2.6260          61.18          55.74           7.75
       314         2.6280          56.84          55.79           7.47
       315         2.6300          52.06          55.85           7.16
       316         2.6320          58.74          55.90           7.58
       317         2.6340          49.88          55.96           6.98
       318         2.6360          57.35          56.01           7.52
       319         2.6380          58.33          56.07           7.57
       320         2.6400          60.19          56.12           7.70
       321         2.6420          50.79          56.18           7.08
       322         2.6440          56.79          56.23           7.47
       323         2.6460          61.39          56.29           7.76
       324         2.6480          62.38          56.34           7.84
       325         2.6500          56.22          56.40           7.44
       326         2.6520          54.63          56.45           7.33
       327         2.6540          56.52          56.51           7.47
       328         2.6560          55.63          56.56           7.39
       329         2.6580          53.04          56.62           7.22
       330         2.6600          51.73          56.67           7.12
       331         2.6620          59.44          56.73           7.65
       332         2.6640          57.23          56.78           7.50
       333         2.6660          50.99          56.83           7.08
       334         2.6680          56.93          56.89           7.48
       335         2.6700          62.01          56.94           7.80
       336         2.6720          63.53          57.00           7.87
       337         2.6740          59.29          57.05           7.62
       338         2.6760          62.78          57.11           7.86
       339         2.6780          53.69          57.16           7.26
       340         2.6800          51.54          57.22           7.12
       341         2.6820          58.09          57.27           7.56
       342         2.6840          65.82          57.32           8.06
       343         2.6860          54.99          57.38           7.35
       344         2.6880          49.00          57.43           6.94
       345         2.6900          53.13          57.48           7.25
       346         2.6920          61.56          57.54           7.76
       347         2.6940          57.50          57.59           7.52
       348         2.6960          54.97          57.64           7.36
       349         2.6980          58.83          57.69           7.61
       350         2.7000          65.65          57.75           8.03
       351         2.7020          47.43          57.80           6.78
       352         2.7040          55.12          57.85           7.36
       353         2.7060          54.04          57.90           7.30
       354         2.7080          59.09          57.95           7.61
       355         2.7100          66.62          58.00           8.10
       356         2.7120          53.03          58.05           7.23
       357         2.7140          56.60          58.10           7.46
       358         2.7160          50.98          58.15           7.08
       359         2.7180          51.74          58.20           7.13
       360         2.7200          51.61          58.25           7.10
       361         2.7220          57.38          58.30           7.52
       362         2.7240          55.09          58.35           7.36
       363         2.7260          56.89          58.40           7.46
       364         2.7280          62.36          58.45           7.85
       365         2.7300          58.38          58.50           7.60
       366         2.7320          67.29          58.55           8.13
       367         2.7340          60.58          58.59           7.72
       368         2.7360          58.37          58.64           7.58
       369         2.7380          47.26          58.69           6.80
       370         2.7400          57.85          58.73           7.52
       371         2.7420          68.35          58.78           8.21
       372         2.7440          65.25          58.83           8.02
       373         2.7460          64.87          58.87           7.99
       374         2.7480          53.28          58.92           7.24
       375         2.7500          51.57          58.96           7.13
       376         2.7520          55.85          59.00           7.42
       377         2.7540          55.19          59.05           7.38
       378         2.7560          59.07          59.09           7.61
       379         2.7580          49.94          59.13           7.00
       380         2.7600          50.32          59.18           7.03
       381         2.7620          56.08          59.22           7.43
       382         2.7640          61.89          59.26           7.78
       383         2.7660          49.66          59.30           6.97
       384         2.7680          49.89          59.34           6.99
       385         2.7700          57.86          59.38           7.55
       386         2.7720          54.33          59.42           7.30
       387         2.7740          57.57          59.46           7.53
       388         2.7760          55.31          59.50           7.38
       389         2.7780          55.41          59.54           7.39
       390         2.7800          54.28          59.58           7.30
       391         2.7820          62.07          59.62           7.83
       392         2.7840          52.06          59.66           7.17
       393         2.7860          49.82          59.69           7.00
       394         2.7880          58.82          59.73           7.61
       395         2.7900          52.89          59.77           7.22
       396         2.7920          57.24          59.80           7.51
       397         2.7940          50.86          59.84           7.08
       398         2.7960          52.01          59.87           7.16
       399         2.7980          62.91          59.91           7.86
       400         2.8000          66.00          59.94           8.07
       401         2.8020          56.15          59.97           7.43
       402         2.8040          51.57          60.01           7.14
       403         2.8060          65.71          60.04           8.02
       404         2.8080          61.12          60.07           7.76
       405         2.8100          60.44          60.10           7.72
       406         2.8120          56.14          60.13           7.44
       407         2.8140          57.19          60.16           7.51
       408         2.8160          54.55          60.19           7.34
       409         2.8180          70.32          60.22           8.30
       410         2.8200          60.08          60.25           7.68
       411         2.8220          52.66          60.28           7.20
       412         2.8240          48.09          60.31           6.89
       413         2.8260          51.00          60.33           7.08
       414         2.8280          48.32          60.36           6.90
       415         2.8300          49.79          60.39           6.99
       416         2.8320          69.89          60.41           8.27
       417         2.8340          60.18          60.44           7.69
       418         2.8360          63.96          60.46           7.93
       419         2.8380          59.98          60.49           7.68
       420         2.8400          57.59          60.51           7.53
       421         2.8420          56.73          60.54           7.48
       422         2.8440          56.92          60.56           7.49
       423         2.8460          58.27          60.58           7.58
       424         2.8480          59.57          60.60           7.65
       425         2.8500          60.25          60.63           7.70
       426         2.8520          59.79          60.65           7.65
       427         2.8540          59.28          60.67           7.64
       428         2.8560          56.42          60.69           7.46
       429         2.8580          66.88          60.71           8.12
       430         2.8600          56.46          60.73           7.45
       431         2.8620          57.35          60.74           7.51
       432         2.8640          62.19          60.76           7.83
       433         2.8660          58.67          60.78           7.60
       434         2.8680          55.78          60.80           7.40
       435         2.8700          59.61          60.81           7.64
       436         2.8720          52.12          60.83           7.15
       437         2.8740          63.46          60.85           7.89
       438         2.8760          64.84          60.86           8.00
       439         2.8780          64.09          60.88           7.94
       440         2.8800          56.22          60.89           7.42
       441         2.8820          44.81          60.90           6.61
       442         2.8840          58.08          60.92           7.56
       443         2.8860          55.35          60.93           7.38
       444         2.8880          50.07          60.94           7.02
       445         2.8900          53.50          60.95           7.24
       446         2.8920          61.04          60.97           7.75
       447         2.8940          67.34          60.98           8.13
       448         2.8960          68.54          60.99           8.19
       449         2.8980          53.34          61.00           7.18
       450         2.9000          64.17          61.01           7.96
       451         2.9020          56.83          61.02           7.49
       452         2.9040          58.35          61.02           7.57
       453         2.9060          72.59          61.03           8.43
       454         2.9080          60.61          61.04           7.69
       455         2.9100          57.27          61.05           7.49
       456         2.9120          62.02          61.05           7.79
       457         2.9140          70.92          61.06           8.35
       458         2.9160          68.21          61.07           8.19
       459         2.9180          68.69          61.07           8.22
       460         2.9200          59.77          61.08           7.66
       461         2.9220          64.58          61.08           7.98
       462         2.9240          64.23          61.09           7.90
       463         2.9260          59.41          61.09           7.56
       464         2.9280          70.93          61.09           8.34
       465         2.9300          54.59          61.10           7.32
       466         2.9320          61.36          61.10           7.76
       467         2.9340          55.63          61.10           7.39
       468         2.9360          62.84          61.10           7.84
       469         2.9380          61.96          61.11           7.80
       470         2.9400          62.65          61.11           7.83
       471         2.9420          60.52          61.11           7.67
       472         2.9440          70.88          61.11           8.36
       473         2.9460          65.67          61.11           8.03
       474         2.9480          61.15          61.11           7.74
       475         2.9500          58.49          61.11           7.57
       476         2.9520          63.41          61.10           7.90
       477         2.9540          62.75          61.10           7.85
       478         2.9560          54.66          61.10           7.32
       479         2.9580          55.51          61.10           7.38
       480         2.9600          68.81          61.10           8.22
       481         2.9620          56.52          61.09           7.43
       482         2.9640          55.69          61.09           7.37
       483         2.9660          70.50          61.09           8.32
       484         2.9680          65.22          61.08           8.01
       485         2.9700          68.19          61.08           8.19
       486         2.9720          60.76          61.07           7.72
       487         2.9740          53.01          61.07           7.23
       488         2.9760          64.14          61.06           7.93
       489         2.9780          61.23          61.06           7.75
       490         2.9800          51.21          61.05           7.09
       491         2.9820          60.33          61.05           7.70
       492         2.9840          61.10          61.04           7.75
       493         2.9860          57.49          61.03           7.52
       494         2.9880          69.62          61.03           8.25
       495         2.9900          55.38          61.02           7.34
       496         2.9920          64.10          61.01           7.94
       497         2.9940          64.59          61.00           7.97
       498         2.9960          60.85          61.00           7.72
       499         2.9980          58.53          60.99           7.57
       500         3.0000          65.40          60.98           8.02
       501         3.0020          63.88          60.97           7.93
       502         3.0040          68.17          60.96           8.18
       503         3.0060          58.38          60.95           7.57
       504         3.0080          53.78          60.94           7.26
       505         3.0100          66.04          60.93           8.02
       506         3.0120          50.23          60.92           7.00
       507         3.0140          53.14          60.91           7.23
       508         3.0160          57.60          60.90           7.50
       509         3.0180          56.25          60.89           7.42
       510         3.0200          59.21          60.88           7.62
       511         3.0220          62.90          60.87           7.86
       512         3.0240          68.28          60.86           8.17
       513         3.0260          57.53          60.85           7.49
       514         3.0280          68.73          60.84           8.20
       515         3.0300          62.08          60.83           7.80
       516         3.0320          52.50          60.82           7.18
       517         3.0340          62.86          60.80           7.85
       518         3.0360          65.27          60.79           8.01
       519         3.0380          59.11          60.78           7.63
       520         3.0400          59.35          60.77           7.64
       521         3.0420          55.73          60.75           7.39
       522         3.0440          61.85          60.74           7.77
       523         3.0460          56.97          60.73           7.47
       524         3.0480          61.51          60.72           7.77
       525         3.0500          54.13          60.70           7.29
       526         3.0520          55.68          60.69           7.39
       527         3.0540          66.50          60.68           8.06
       528         3.0560          57.55          60.67           7.50
       529         3.0580          62.81          60.65           7.85
       530         3.0600          49.63          60.64           6.97
       531         3.0620          52.58          60.63           7.16
       532         3.0640          58.59          60.61           7.59
       533         3.0660          59.00          60.60           7.62
       534         3.0680          56.95          60.58           7.47
       535         3.0700          54.35          60.57           7.30
       536         3.0720          56.87          60.56           7.48
       537         3.0740          50.42          60.54           7.04
       538         3.0760          46.31          60.53           6.75
       539         3.0780          51.63          60.52           7.09
       540         3.0800          63.00          60.50           7.86
       541         3.0820          54.89          60.49           7.32
       542         3.0840          65.25          60.48           8.01
       543         3.0860          58.51          60.46           7.58
       544         3.0880          66.69          60.45           8.08
       545         3.0900          58.68          60.43           7.58
       546         3.0920          50.49          60.42           7.05
       547         3.0940          55.91          60.41           7.40
       548         3.0960          57.63          60.39           7.52
       549         3.0980          55.06          60.38           7.34
       550         3.1000          64.75          60.37           7.98
       551         3.1020          64.21          60.35           7.94
       552         3.1040          60.40          60.34           7.70
       553         3.1060          60.57          60.33           7.70
       554         3.1080          66.66          60.31           8.08
       555         3.1100          50.10          60.30           7.01
       556         3.1120          55.56          60.28           7.39
       557         3.1140          61.31          60.27           7.76
       558         3.1160          60.95          60.26           7.74
       559         3.1180          60.80          60.25           7.72
       560         3.1200          61.59          60.23           7.79
       561         3.1220          57.99          60.22           7.56
       562         3.1240          66.23          60.21           8.06
       563         3.1260          71.82          60.19           8.39
       564         3.1280          66.15          60.18           8.05
       565         3.1300          62.90          60.17           7.85
       566         3.1320          55.24          60.16           7.36
       567         3.1340          64.77          60.14           7.95
       568         3.1360          55.69          60.13           7.38
       569         3.1380          53.38          60.12           7.24
       570         3.1400          63.33          60.11           7.88
       571         3.1420          55.51          60.10           7.37
       572         3.1440          62.63          60.09           7.80
       573         3.1460          54.12          60.07           7.26
       574         3.1480          61.54          60.06           7.77
       575         3.1500          62.97          60.05           7.87
       576         3.1520          54.39          60.04           7.30
       577         3.1540          54.40          60.03           7.32
       578         3.1560          72.08          60.02           8.38
       579         3.1580          60.37          60.01           7.68
       580         3.1600          58.02          60.00           7.52
       581         3.1620          54.94          59.99           7.27
       582         3.1640          85.94          59.98           9.15
       583         3.1660          56.91          59.97           7.44
       584         3.1680          68.35          59.96           8.15
       585         3.1700          76.87          59.95           8.66
       586         3.1720          54.56          59.94           7.29
       587         3.1740          66.57          59.93           8.08
       588         3.1760          65.49          59.93           8.02
       589         3.1780          64.34          59.92           7.95
       590         3.1800          72.06          59.91           8.41
       591         3.1820          76.72          59.90           8.67
       592         3.1840          71.77          59.89           8.38
       593         3.1860          73.69          59.89           8.50
       594         3.1880          85.46          59.88           9.17
       595         3.1900          85.61          59.87           9.16
       596         3.1920         101.25          59.87           9.97
       597         3.1940         103.06          59.86          10.03
       598         3.1960         131.17          59.85          11.35
       599         3.1980         141.15          59.85          11.78
       600         3.2000         135.15          59.84          11.53
       601         3.2020         122.49          59.84          10.96
       602         3.2040         109.46          59.83          10.36
       603         3.2060          94.47          59.83           9.61
       604         3.2080          73.61          59.82           8.49
       605         3.2100          74.74          59.82           8.57
       606         3.2120          71.38          59.82           8.34
       607         3.2140          58.25          59.81           7.50
       608         3.2160          68.63          59.81           8.22
       609         3.2180          66.98          59.81           8.11
       610         3.2200          59.73          59.80           7.66
       611         3.2220          52.09          59.80           7.15
       612         3.2240          67.90          59.80           8.14
       613         3.2260          70.47          59.80           8.31
       614         3.2280          62.16          59.80           7.80
       615         3.2300          74.22          59.80           8.54
       616         3.2320          64.16          59.80           7.93
       617         3.2340          57.70          59.80           7.53
       618         3.2360          66.64          59.80           8.09
       619         3.2380          70.67          59.80           8.34
       620         3.2400          66.31          59.80           8.07
       621         3.2420          67.42          59.80           8.14
       622         3.2440          70.75          59.80           8.34
       623         3.2460          89.31          59.80           9.35
       624         3.2480         102.99          59.80          10.06
       625         3.2500         114.43          59.81          10.61
       626         3.2520         114.94          59.81          10.62
       627         3.2540         105.22          59.81          10.16
       628         3.2560          98.65          59.81           9.84
       629         3.2580          85.70          59.82           9.17
       630         3.2600          79.32          59.82           8.83
       631         3.2620          78.15          59.83           8.77
       632         3.2640          78.65          59.83           8.78
       633         3.2660          66.64          59.84           8.09
       634         3.2680          59.56          59.84           7.65
       635         3.2700          61.82          59.85           7.78
       636         3.2720          58.02          59.86           7.55
       637         3.2740          61.98          59.86           7.80
       638         3.2760          60.79          59.87           7.72
       639         3.2780          61.61          59.88           7.78
       640         3.2800          66.89          59.89           8.10
       641         3.2820          49.47          59.89           6.96
       642         3.2840          45.57          59.90           6.68
       643         3.2860          60.44          59.91           7.69
       644         3.2880          57.57          59.95           7.50
       645         3.2900          72.31          59.96           8.42
       646         3.2920          61.14          59.97           7.75
       647         3.2940          55.67          59.99           7.40
       648         3.2960          66.17          60.00           8.02
       649         3.2980          63.96          60.02           7.91
       650         3.3000          57.86          60.03           7.54
       651         3.3020          56.72          60.05           7.45
       652         3.3040          49.78          60.07           6.98
       653         3.3060          52.84          60.09           7.20
       654         3.3080          42.10          60.11           6.42
       655         3.3100          58.43          60.13           7.56
       656         3.3120          52.56          60.15           7.18
       657         3.3140          45.61          60.18           6.70
       658         3.3160          51.81          60.21           7.12
       659         3.3180          63.50          60.25           7.91
       660         3.3200          68.56          60.29           8.19
       661         3.3220          62.31          60.34           7.81
       662         3.3240          52.62          60.39           7.18
       663         3.3260          56.22          60.47           7.42
       664         3.3280          53.19          60.57           7.21
       665         3.3300          58.26          60.71           7.52
       666         3.3320          74.76          60.92           8.52
       667         3.3340          53.13          61.35           7.19
       668         3.3360          55.25          62.42           7.36
       669         3.3380          56.80          65.08           7.45
       670         3.3400          72.29          69.83           8.41
       671         3.3420          70.27          73.88           8.30
       672         3.3440          62.74          71.69           7.85
       673         3.3460          50.52          66.63           7.04
       674         3.3480          49.81          63.24           6.99
       675         3.3500          57.67          61.77           7.53
       676         3.3520          63.25          61.24           7.89
       677         3.3540          56.31          61.01           7.44
       678         3.3560          59.31          60.90           7.64
       679         3.3580          45.49          60.83           6.68
       680         3.3600          54.81          60.79           7.31
       681         3.3620          64.52          60.76           7.96
       682         3.3640          60.16          60.75           7.70
       683         3.3660          62.90          60.75           7.87
       684         3.3680          70.62          60.76           8.32
       685         3.3700          79.49          60.77           8.82
       686         3.3720          56.51          60.78           7.41
       687         3.3740          57.99          60.80           7.54
       688         3.3760          47.99          60.82           6.86
       689         3.3780          56.86          60.84           7.47
       690         3.3800          44.71          60.86           6.62
       691         3.3820          60.58          60.88           7.67
       692         3.3840          64.33          60.91           7.95
       693         3.3860          58.36          60.93           7.58
       694         3.3880          62.55          60.96           7.84
       695         3.3900          56.96          60.99           7.48
       696         3.3920          57.10          61.01           7.49
       697         3.3940          73.49          61.04           8.48
       698         3.3960          67.54          61.07           8.14
       699         3.3980          60.76          61.08           7.73
       700         3.4000          74.25          61.11           8.50
       701         3.4020          54.59          61.14           7.28
       702         3.4040          57.66          61.18           7.52
       703         3.4060          54.86          61.21           7.33
       704         3.4080          62.95          61.24           7.85
       705         3.4100          73.06          61.28           8.47
       706         3.4120          59.31          61.31           7.63
       707         3.4140          59.33          61.35           7.64
       708         3.4160          52.22          61.38           7.16
       709         3.4180          54.86          61.42           7.34
       710         3.4200          58.89          61.46           7.60
       711         3.4220          47.97          61.49           6.85
       712         3.4240          55.25          61.53           7.34
       713         3.4260          72.39          61.57           8.44
       714         3.4280          64.05          61.61           7.92
       715         3.4300          55.03          61.64           7.34
       716         3.4320          55.19          61.68           7.34
       717         3.4340          65.95          61.72           8.04
       718         3.4360          64.06          61.76           7.92
       719         3.4380          64.77          61.80           7.98
       720         3.4400          77.56          61.84           8.69
       721         3.4420          59.37          61.88           7.61
       722         3.4440          62.69          61.92           7.84
       723         3.4460          58.81          61.96           7.59
       724         3.4480          56.63          62.01           7.46
       725         3.4500          56.94          62.05           7.46
       726         3.4520          52.11          62.09           7.14
       727         3.4540          58.19          62.13           7.56
       728         3.4560          59.51          62.18           7.65
       729         3.4580          50.83          62.22           7.07
       730         3.4600          57.49          62.26           7.50
       731         3.4620          54.40          62.31           7.30
       732         3.4640          67.88          62.35           8.15
       733         3.4660          66.84          62.40           8.10
       734         3.4680          63.59          62.44           7.89
       735         3.4700          59.28          62.49           7.61
       736         3.4720          51.80          62.53           7.11
       737         3.4740          53.47          62.58           7.24
       738         3.4760          54.63          62.62           7.31
       739         3.4780          57.35          62.67           7.47
       740         3.4800          60.09          62.72           7.66
       741         3.4820          57.93          62.77           7.55
       742         3.4840          55.73          62.81           7.41
       743         3.4860          61.37          62.86           7.78
       744         3.4880          75.96          62.91           8.62
       745         3.4900          69.27          62.96           8.25
       746         3.4920          64.64          63.01           7.97
       747         3.4940          63.24          63.06           7.87
       748         3.4960          62.39          63.11           7.82
       749         3.4980          54.63          63.16           7.32
       750         3.5000          69.69          63.21           8.27
       751         3.5020          69.32          63.26           8.25
       752         3.5040          65.57          63.31           8.02
       753         3.5060          67.25          63.36           8.12
       754         3.5080          63.49          63.41           7.89
       755         3.5100          54.56          63.46           7.30
       756         3.5120          55.94          63.51           7.43
       757         3.5140          67.30          63.57           8.12
       758         3.5160          64.99          63.62           7.99
       759         3.5180          67.57          63.67           8.14
       760         3.5200          57.33          63.72           7.50
       761         3.5220          55.87          63.78           7.39
       762         3.5240          60.90          63.83           7.74
       763         3.5260          54.97          63.88           7.35
       764         3.5280          51.61          63.94           7.12
       765         3.5300          50.76          63.99           7.06
       766         3.5320          61.66          64.05           7.77
       767         3.5340          63.07          64.10           7.86
       768         3.5360          49.73          64.16           6.98
       769         3.5380          55.87          64.21           7.41
       770         3.5400          50.92          64.27           7.08
       771         3.5420          60.41          64.32           7.69
       772         3.5440          74.44          64.38           8.56
       773         3.5460          71.89          64.44           8.39
       774         3.5480          69.22          64.49           8.22
       775         3.5500          69.37          64.55           8.25
       776         3.5520          71.32          64.61           8.35
       777         3.5540          75.02          64.66           8.57
       778         3.5560          60.13          64.72           7.67
       779         3.5580          58.49          64.78           7.56
       780         3.5600          62.86          64.84           7.84
       781         3.5620          48.93          64.89           6.92
       782         3.5640          59.73          64.95           7.63
       783         3.5660          60.83          65.01           7.73
       784         3.5680          58.28          65.07           7.57
       785         3.5700          63.56          65.13           7.90
       786         3.5720          66.35          65.19           8.07
       787         3.5740          64.95          65.25           7.99
       788         3.5760          57.04          65.30           7.47
       789         3.5780          67.23          65.36           8.11
       790         3.5800          58.51          65.42           7.57
       791         3.5820          63.76          65.48           7.90
       792         3.5840          68.44          65.54           8.21
       793         3.5860          67.77          65.60           8.16
       794         3.5880          66.30          65.66           8.07
       795         3.5900          63.62          65.72           7.90
       796         3.5920          59.84          65.78           7.65
       797         3.5940          58.95          65.85           7.58
       798         3.5960          67.13          65.91           8.12
       799         3.5980          75.60          65.97           8.61
       800         3.6000          69.29          66.03           8.21
       801         3.6020          57.69          66.09           7.50
       802         3.6040          64.17          66.15           7.94
       803         3.6060          61.68          66.21           7.79
       804         3.6080          60.87          66.27           7.73
       805         3.6100          54.47          66.34           7.31
       806         3.6120          66.63          66.40           8.09
       807         3.6140          74.43          66.46           8.56
       808         3.6160          81.65          66.52           8.96
       809         3.6180          72.81          66.58           8.46
       810         3.6200          79.45          66.65           8.80
       811         3.6220          60.28          66.71           7.68
       812         3.6240          72.54          66.77           8.44
       813         3.6260          64.87          66.83           7.98
       814         3.6280          66.17          66.90           8.05
       815         3.6300          63.28          66.96           7.88
       816         3.6320          54.83          67.02           7.32
       817         3.6340          65.70          67.08           8.03
       818         3.6360          51.98          67.15           7.14
       819         3.6380          54.54          67.21           7.32
       820         3.6400          67.32          67.27           8.12
       821         3.6420          72.47          67.34           8.43
       822         3.6440          67.00          67.40           8.11
       823         3.6460          74.72          67.46           8.57
       824         3.6480          68.58          67.53           8.19
       825         3.6500          58.54          67.59           7.54
       826         3.6520          79.40          67.65           8.82
       827         3.6540          77.15          67.72           8.69
       828         3.6560          72.88          67.78           8.44
       829         3.6580          72.69          67.85           8.44
       830         3.6600          70.46          67.91           8.32
       831         3.6620          65.68          67.97           8.03
       832         3.6640          66.16          68.04           8.06
       833         3.6660          64.21          68.10           7.94
       834         3.6680          65.20          68.16           8.00
       835         3.6700          65.46          68.23           8.02
       836         3.6720          71.69          68.29           8.38
       837         3.6740          70.19          68.36           8.30
       838         3.6760          68.03          68.42           8.18
       839         3.6780          69.56          68.48           8.26
       840         3.6800          73.92          68.55           8.52
       841         3.6820          75.54          68.61           8.61
       842         3.6840          62.04          68.68           7.81
       843         3.6860          62.19          68.74           7.82
       844         3.6880          69.60          68.80           8.25
       845         3.6900          72.76          68.87           8.44
       846         3.6920          65.60          68.93           8.01
       847         3.6940          60.51          68.99           7.68
       848         3.6960          74.18          69.06           8.53
       849         3.6980          64.45          69.12           7.95
       850         3.7000          66.22          69.19           8.07
       851         3.7020          65.53          69.25           8.03
       852         3.7040          73.31          69.31           8.49
       853         3.7060          77.99          69.38           8.75
       854         3.7080          71.64          69.44           8.38
       855         3.7100          75.91          69.51           8.62
       856         3.7120          60.26          69.57           7.67
       857         3.7140          71.72          69.63           8.38
       858         3.7160          63.02          69.70           7.86
       859         3.7180          68.67          69.76           8.20
       860         3.7200          68.20          69.82           8.18
       861         3.7220          63.62          69.89           7.89
       862         3.7240          80.90          69.95           8.91
       863         3.7260          77.06          70.01           8.70
       864         3.7280          72.68          70.08           8.45
       865         3.7300          89.14          70.14           9.34
       866         3.7320          75.06          70.20           8.56
       867         3.7340          60.31          70.27           7.68
       868         3.7360          63.16          70.33           7.85
       869         3.7380          86.68          73.90           9.21
       870         3.7400          71.38          74.22           8.37
       871         3.7420          85.13          74.57           9.13
       872         3.7440          75.40          74.96           8.60
       873         3.7460          64.00          75.39           7.93
       874         3.7480          75.69          75.86           8.61
       875         3.7500          81.57          76.39           8.94
       876         3.7520          66.54          76.99           8.06
       877         3.7540          81.18          77.67           8.91
       878         3.7560          83.12          78.44           9.02
       879         3.7580          68.72          79.33           8.20
       880         3.7600          83.10          80.37           9.03
       881         3.7620          78.01          81.58           8.76
       882         3.7640          98.02          83.03           9.80
       883         3.7660          90.59          84.77           9.44
       884         3.7680          88.94          86.89           9.35
       885         3.7700          96.12          89.51           9.70
       886         3.7720         118.03          92.82          10.77
       887         3.7740         115.71          97.08          10.65
       888         3.7760         134.39         102.68          11.48
       889         3.7780         131.70         110.27          11.35
       890         3.7800         157.36         120.91          12.45
       891         3.7820         189.11         136.51          13.61
       892         3.7840         234.09         167.86          15.12
       893         3.7860         297.28         216.81          17.08
       894         3.7880         420.62         334.08          20.29
       895         3.7900         658.26         611.70          25.27
       896         3.7920        1050.41        1115.15          32.00
       897         3.7940        1458.42        1630.01          37.84
       898         3.7960        1491.48        1535.15          38.31
       899         3.7980         973.23         975.14          30.72
       900         3.8000         521.96         526.86          22.53
       901         3.8020         306.94         300.94          17.34
       902         3.8040         217.74         209.70          14.61
       903         3.8060         178.79         171.42          13.23
       904         3.8080         133.53         151.68          11.44
       905         3.8100         135.22         140.19          11.53
       906         3.8120         150.55         133.57          12.15
       907         3.8140         120.33         130.36          10.86
       908         3.8160         128.88         129.85          11.26
       909         3.8180         151.58         131.78          12.18
       910         3.8200         168.39         136.25          12.86
       911         3.8220         166.15         143.75          12.78
       912         3.8240         168.79         155.20          12.86
       913         3.8260         224.73         172.34          14.84
       914         3.8280         245.26         198.36          15.54
       915         3.8300         288.59         240.59          16.83
       916         3.8320         379.58         321.91          19.23
       917         3.8340         608.11         515.59          24.32
       918         3.8360         983.80         979.21          30.95
       919         3.8380        1719.52        1845.10          40.79
       920         3.8400        2533.59        2806.19          49.87
       921         3.8420        2561.16        2768.58          50.18
       922         3.8440        1763.57        1788.52          41.42
       923         3.8460         960.04         942.29          30.54
       924         3.8480         508.34         497.06          22.27
       925         3.8500         338.83         311.75          18.22
       926         3.8520         244.65         229.19          15.50
       927         3.8540         208.15         187.18          14.29
       928         3.8560         175.51         160.53          13.12
       929         3.8580         154.98         142.26          12.34
       930         3.8600         135.59         129.20          11.54
       931         3.8620         117.60         119.54          10.74
       932         3.8640         104.18         112.23          10.11
       933         3.8660          97.50         106.56           9.79
       934         3.8680          88.76         102.08           9.34
       935         3.8700          87.47          98.48           9.27
       936         3.8720          87.56          95.56           9.27
       937         3.8740          86.10          93.15           9.19
       938         3.8760          68.98          91.14           8.23
       939         3.8780          67.43          89.46           8.14
       940         3.8800          77.25          88.03           8.72
       941         3.8820          76.63          86.81           8.67
       942         3.8840          71.10          85.76           8.35
       943         3.8860          78.46          84.85           8.77
       944         3.8880          74.08          84.06           8.50
       945         3.8900          78.08          83.38           8.75
       946         3.8920          73.55          82.77           8.49
       947         3.8940          72.89          82.24           8.45
       948         3.8960          82.47          81.77           8.99
       949         3.8980          71.67          81.35           8.38
       950         3.9000          77.55          75.05           8.72
       951         3.9020          85.12          75.11           9.14
       952         3.9040          67.40          75.16           8.12
       953         3.9060          63.02          75.21           7.85
       954         3.9080          74.12          75.26           8.54
       955         3.9100          80.07          75.31           8.86
       956         3.9120          88.35          75.36           9.30
       957         3.9140          79.19          75.41           8.81
       958         3.9160          63.69          75.45           7.89
       959         3.9180          71.67          75.50           8.33
       960         3.9200          75.75          75.55           8.62
       961         3.9220          67.80          75.60           8.16
       962         3.9240          68.26          75.65           8.18
       963         3.9260          64.43          75.70           7.95
       964         3.9280          68.14          75.75           8.18
       965         3.9300          62.40          75.79           7.83
       966         3.9320          70.56          75.84           8.32
       967         3.9340          82.28          75.89           8.97
       968         3.9360          84.13          75.94           9.09
       969         3.9380          76.58          75.98           8.68
       970         3.9400          73.54          76.03           8.50
       971         3.9420          86.37          76.08           9.21
       972         3.9440          76.77          76.12           8.65
       973         3.9460          67.68          76.17           8.10
       974         3.9480          78.15          76.22           8.74
       975         3.9500          62.64          76.26           7.83
       976         3.9520          77.77          76.31           8.72
       977         3.9540          76.66          76.36           8.67
       978         3.9560          69.26          76.40           8.25
       979         3.9580          64.38          76.45           7.95
       980         3.9600          70.76          76.49           8.32
       981         3.9620          78.71          76.54           8.79
       982         3.9640          82.11          76.58           8.98
       983         3.9660          71.33          76.63           8.36
       984         3.9680          74.39          76.67           8.52
       985         3.9700          96.69          76.71           9.73
       986         3.9720          88.13          76.76           9.29
       987         3.9740          77.81          76.80           8.74
       988         3.9760          75.23          76.85           8.58
       989         3.9780          72.61          76.89           8.43
       990         3.9800          77.36          76.93           8.70
       991         3.9820          67.99          76.98           8.13
       992         3.9840          78.58          77.02           8.77
       993         3.9860          62.22          77.06           7.80
       994         3.9880          67.83          77.11           8.17
       995         3.9900          79.25          77.15           8.80
       996         3.9920          67.09          77.19           8.10
       997         3.9940          77.35          77.23           8.67
       998         3.9960          71.61          77.27           8.36
       999         3.9980          63.36          77.32           7.87
      1000         4.0000          60.47          77.36          10.80
      1001         4.0020          79.47          77.40           8.69
      1002         4.0040          64.62          77.44           7.84
      1003         4.0060          83.24          77.48           8.89
      1004         4.0080          94.12          77.52           9.48
      1005         4.0100          89.07          77.56           9.22
      1006         4.0120          78.27          77.60           8.64
      1007         4.0140          75.55          77.65           8.49
      1008         4.0160          71.40          77.69           8.26
      1009         4.0180          95.31          77.73           9.52
      1010         4.0200          75.81          77.77           8.48
      1011         4.0220          87.87          77.81           9.14
      1012         4.0240          88.51          77.85           9.20
      1013         4.0260          80.75          77.89           8.76
      1014         4.0280          74.33          77.93           8.42
      1015         4.0300          71.92          77.96           8.29
      1016         4.0320          64.50          78.00           7.84
      1017         4.0340          84.48          78.04           8.96
      1018         4.0360          93.36          78.08           9.44
      1019         4.0380          73.10          78.12           8.34
      1020         4.0400          93.39          78.16           9.42
      1021         4.0420          76.12          78.20           8.50
      1022         4.0440          76.30          78.24           8.53
      1023         4.0460          83.54          78.28           8.92
      1024         4.0480          76.23          78.31           8.53
      1025         4.0500          72.16          78.35           8.30
      1026         4.0520          79.50          78.39           8.71
      1027         4.0540          79.73          78.43           8.71
      1028         4.0560          76.68          78.46           8.55
      1029         4.0580          70.73          78.50           8.21
      1030         4.0600          89.50          78.54           9.22
      1031         4.0620          75.09          78.58           8.44
      1032         4.0640          81.20          78.61           8.80
      1033         4.0660          77.48          78.65           8.60
      1034         4.0680          62.12          78.69           7.69
      1035         4.0700          75.81          78.73           8.49
      1036         4.0720          77.50          78.76           8.60
      1037         4.0740          82.30          78.80           8.84
      1038         4.0760          91.49          78.84           9.33
      1039         4.0780          87.27          78.87           9.11
      1040         4.0800          81.71          78.91           8.82
      1041         4.0820          74.94          78.95           8.45
      1042         4.0840          75.14          78.98           8.46
      1043         4.0860          78.23          79.02           8.62
      1044         4.0880          80.87          79.05           8.79
      1045         4.0900          85.18          79.09           9.02
      1046         4.0920          70.82          79.13           8.21
      1047         4.0940          63.80          79.16           7.80
      1048         4.0960          85.18          79.20           8.98
      1049         4.0980          86.44          79.23           9.06
      1050         4.1000          92.67          79.27           9.39
      1051         4.1020          90.43          79.30           9.29
      1052         4.1040          83.48          79.34           8.93
      1053         4.1060          85.24          79.38           9.02
      1054         4.1080          81.29          79.41           8.79
      1055         4.1100          83.93          79.45           8.94
      1056         4.1120          80.99          79.48           8.79
      1057         4.1140          74.76          79.52           8.43
      1058         4.1160          86.71          79.55           9.08
      1059         4.1180          86.58          79.59           9.09
      1060         4.1200          70.00          79.62           8.16
      1061         4.1220          77.07          79.66           8.58
      1062         4.1240          70.02          79.69           8.17
      1063         4.1260          83.54          79.73           8.92
      1064         4.1280          77.39          79.76           8.59
      1065         4.1300          69.82          79.80           8.16
      1066         4.1320          88.53          79.83           9.18
      1067         4.1340          79.28          79.87           8.68
      1068         4.1360          81.73          79.90           8.81
      1069         4.1380          86.71          79.94           9.08
      1070         4.1400          78.35          79.97           8.65
      1071         4.1420          76.42          80.00           8.54
      1072         4.1440          94.60          80.04           9.50
      1073         4.1460          92.01          80.07           9.37
      1074         4.1480          88.31          80.11           9.18
      1075         4.1500          94.10          80.14           9.48
      1076         4.1520         100.97          80.18           9.81
      1077         4.1540          84.64          80.21           8.98
      1078         4.1560          77.33          80.25           8.60
      1079         4.1580          86.68          80.28           9.09
      1080         4.1600          87.24          80.32           9.13
      1081         4.1620          77.41          80.35           8.60
      1082         4.1640          80.16          80.39           8.75
      1083         4.1660          86.02          80.42           9.07
      1084         4.1680          84.71          80.46           9.00
      1085         4.1700          93.64          80.49           9.46
      1086         4.1720          85.96          80.52           9.06
      1087         4.1740          84.22          80.56           8.98
      1088         4.1760          86.47          80.59           9.07
      1089         4.1780          84.40          80.63           8.97
      1090         4.1800          74.41          80.66           8.42
      1091         4.1820          88.39          80.70           9.18
      1092         4.1840          93.31          80.73           9.43
      1093         4.1860          76.07          80.77           8.51
      1094         4.1880          73.30          80.80           8.36
      1095         4.1900          75.26          80.84           8.46
      1096         4.1920          71.39          80.87           8.25
      1097         4.1940          76.88          80.91           8.56
      1098         4.1960          68.69          80.94           8.09
      1099         4.1980          84.91          80.98           8.98
      1100         4.2000          80.78          81.01           8.78
      1101         4.2020          83.13          81.05           8.91
      1102         4.2040          89.57          81.09           9.25
      1103         4.2060          93.06          81.12           9.43
      1104         4.2080          76.20          81.16           8.51
      1105         4.2100          81.97          81.19           8.84
      1106         4.2120          80.80          81.23           8.78
      1107         4.2140          80.33          81.26           8.77
      1108         4.2160          89.66          81.30           9.25
      1109         4.2180          87.72          81.34           9.15
      1110         4.2200          85.42          81.37           9.03
      1111         4.2220          77.88          81.41           8.62
      1112         4.2240          76.43          81.44           8.55
      1113         4.2260          81.13          81.75           8.81
      1114         4.2280          88.49          81.81           9.18
      1115         4.2300          91.21          81.87           9.33
      1116         4.2320          88.35          81.93           9.18
      1117         4.2340          78.50          81.99           8.66
      1118         4.2360          81.03          82.06           8.79
      1119         4.2380          81.28          82.13           8.81
      1120         4.2400          83.69          82.21           8.94
      1121         4.2420          76.00          82.29           8.51
      1122         4.2440          79.18          82.38           8.69
      1123         4.2460          86.41          82.48           9.08
      1124         4.2480          83.96          82.58           8.95
      1125         4.2500          77.52          82.70           8.60
      1126         4.2520          84.11          82.84           8.95
      1127         4.2540          88.99          83.00           9.21
      1128         4.2560         103.79          83.18           9.94
      1129         4.2580          87.98          83.39           9.15
      1130         4.2600          84.04          83.65           8.96
      1131         4.2620          86.38          83.97           9.07
      1132         4.2640          77.41          84.37           8.60
      1133         4.2660          78.53          84.89           8.66
      1134         4.2680          84.76          85.59           9.00
      1135         4.2700          82.02          86.57           8.84
      1136         4.2720          77.84          88.01           8.61
      1137         4.2740         103.09          90.42           9.89
      1138         4.2760         105.55          95.31          10.03
      1139         4.2780         128.52         106.54          11.06
      1140         4.2800         135.37         129.82          11.35
      1141         4.2820         189.63         165.62          13.41
      1142         4.2840         203.62         191.80          13.93
      1143         4.2860         173.97         174.06          12.86
      1144         4.2880         125.78         137.32          10.93
      1145         4.2900         112.62         110.85          10.38
      1146         4.2920         103.05          97.43           9.90
      1147         4.2940          99.59          91.62           9.75
      1148         4.2960         100.85          88.93           9.81
      1149         4.2980          81.69          87.41           8.82
      1150         4.3000         103.41          86.43           9.92
      1151         4.3020          98.60          85.76           9.70
      1152         4.3040          87.03          85.29           9.12
      1153         4.3060          77.07          84.94           8.57
      1154         4.3080          87.98          84.69           9.16
      1155         4.3100          91.67          84.50           9.37
      1156         4.3120          77.61          84.36           8.60
      1157         4.3140          76.82          84.25           8.56
      1158         4.3160          87.37          84.17           9.12
      1159         4.3180          86.62          84.11           9.09
      1160         4.3200          99.30          84.07           9.73
      1161         4.3220          90.31          84.04           9.27
      1162         4.3240          79.08          84.03           8.68
      1163         4.3260          89.08          84.02           9.22
      1164         4.3280          78.37          84.02           8.64
      1165         4.3300          90.31          84.02           9.27
      1166         4.3320          91.74          84.03           9.35
      1167         4.3340          82.14          84.05           8.85
      1168         4.3360          87.14          84.06           9.11
      1169         4.3380         101.31          84.09           9.83
      1170         4.3400          93.26          84.11           9.44
      1171         4.3420          87.67          84.14           9.13
      1172         4.3440          69.60          84.17           8.14
      1173         4.3460          86.06          83.96           9.04
      1174         4.3480          97.68          84.01           9.65
      1175         4.3500          97.89          84.05           9.68
      1176         4.3520          88.77          84.10           9.17
      1177         4.3540          79.67          84.15           8.70
      1178         4.3560          86.80          84.20           9.07
      1179         4.3580          85.40          84.25           9.02
      1180         4.3600          77.82          84.30           8.61
      1181         4.3620          79.41          84.35           8.69
      1182         4.3640          87.16          84.40           9.12
      1183         4.3660          97.18          84.45           9.62
      1184         4.3680          84.36          84.50           8.97
      1185         4.3700          86.00          84.55           9.07
      1186         4.3720          86.11          84.60           9.05
      1187         4.3740          83.44          84.66           8.92
      1188         4.3760          85.34          84.71           9.02
      1189         4.3780          85.99          84.76           9.06
      1190         4.3800          82.87          84.81           8.90
      1191         4.3820          70.32          84.87           8.16
      1192         4.3840          78.73          84.92           8.66
      1193         4.3860          79.61          84.97           8.72
      1194         4.3880          86.32          85.03           9.06
      1195         4.3900          87.07          85.08           9.11
      1196         4.3920          84.53          85.14           8.98
      1197         4.3940          91.14          85.19           9.33
      1198         4.3960          88.03          85.25           9.18
      1199         4.3980          87.08          85.30           9.12
      1200         4.4000          98.79          85.36           9.71
      1201         4.4020          95.55          85.41           9.54
      1202         4.4040          85.90          85.47           9.05
      1203         4.4060          88.73          85.53           9.20
      1204         4.4080          80.45          85.58           8.77
      1205         4.4100          85.40          85.64           9.01
      1206         4.4120          93.10          85.70           9.43
      1207         4.4140          86.64          85.76           9.09
      1208         4.4160          85.51          85.82           9.02
      1209         4.4180         104.72          85.88           9.98
      1210         4.4200          76.79          85.94           8.53
      1211         4.4220         102.54          86.00           9.86
      1212         4.4240          93.42          86.06           9.44
      1213         4.4260          91.45          86.12           9.35
      1214         4.4280          87.04          86.18           9.12
      1215         4.4300          92.23          86.24           9.38
      1216         4.4320          79.43          86.30           8.70
      1217         4.4340          94.47          86.36           9.48
      1218         4.4360          87.27          86.42           9.12
      1219         4.4380          81.68          86.49           8.81
      1220         4.4400          82.59          86.55           8.87
      1221         4.4420          82.17          86.61           8.85
      1222         4.4440         106.39          86.68          10.06
      1223         4.4460          92.88          86.74           9.41
      1224         4.4480          91.18          86.81           9.33
      1225         4.4500          81.47          86.87           8.82
      1226         4.4520          91.66          86.94           9.32
      1227         4.4540          84.23          87.00           8.96
      1228         4.4560          80.45          87.07           8.76
      1229         4.4580          78.59          87.14           8.65
      1230         4.4600          93.92          87.20           9.46
      1231         4.4620          96.54          87.27           9.60
      1232         4.4640          81.52          87.34           8.81
      1233         4.4660          88.21          87.41           9.16
      1234         4.4680          77.93          87.47           8.61
      1235         4.4700          86.37          87.54           9.06
      1236         4.4720          89.56          87.61           9.24
      1237         4.4740          95.27          87.68           9.54
      1238         4.4760          97.16          87.75           9.63
      1239         4.4780         102.14          87.82           9.88
      1240         4.4800          96.06          87.89           9.57
      1241         4.4820          85.06          87.96           9.01
      1242         4.4840          98.83          88.04           9.71
      1243         4.4860          80.23          88.11           8.73
      1244         4.4880          85.54          88.18           9.03
      1245         4.4900          96.49          88.25           9.60
      1246         4.4920         103.72          88.33           9.94
      1247         4.4940          86.26          88.40           9.06
      1248         4.4960         106.30          88.48          10.05
      1249         4.4980         103.09          88.55           9.92
      1250         4.5000          93.37          88.63           9.44
      1251         4.5020          98.59          88.70           9.69
      1252         4.5040          87.80          88.78           9.15
      1253         4.5060          88.89          88.85           9.21
      1254         4.5080          93.72          88.93           9.46
      1255         4.5100          80.62          89.01           8.77
      1256         4.5120          90.76          89.08           9.31
      1257         4.5140          82.65          89.16           8.88
      1258         4.5160          93.52          89.24           9.44
      1259         4.5180          82.29          89.32           8.81
      1260         4.5200          90.11          89.40           9.26
      1261         4.5220          94.13          89.48           9.48
      1262         4.5240          94.68          89.56           9.51
      1263         4.5260          83.42          89.64           8.90
      1264         4.5280          79.61          89.72           8.71
      1265         4.5300          85.60          89.80           9.04
      1266         4.5320          96.35          89.89           9.59
      1267         4.5340         107.91          89.97          10.16
      1268         4.5360          97.31          90.05           9.64
      1269         4.5380          94.52          90.13           9.49
      1270         4.5400          93.04          90.22           9.43
      1271         4.5420          97.54          90.30           9.66
      1272         4.5440          75.84          90.39           8.48
      1273         4.5460          90.14          90.47           9.26
      1274         4.5480          86.79          90.56           9.10
      1275         4.5500          97.67          90.64           9.66
      1276         4.5520          85.48          90.73           9.03
      1277         4.5540         109.58          90.82          10.22
      1278         4.5560         105.25          90.90          10.01
      1279         4.5580         100.09          90.99           9.78
      1280         4.5600          93.21          91.08           9.44
      1281         4.5620          82.46          91.17           8.88
      1282         4.5640          89.75          91.26           9.26
      1283         4.5660          97.92          91.35           9.67
      1284         4.5680          90.02          91.44           9.27
      1285         4.5700          91.11          91.53           9.33
      1286         4.5720          90.88          91.62           9.31
      1287         4.5740          87.68          91.71           9.15
      1288         4.5760          93.22          91.80           9.44
      1289         4.5780          82.12          91.89           8.85
      1290         4.5800          83.96          91.99           8.95
      1291         4.5820          92.04          92.08           9.37
      1292         4.5840          94.30          92.17           9.47
      1293         4.5860          84.18          92.27           8.95
      1294         4.5880          90.71          92.36           9.30
      1295         4.5900          92.73          92.46           9.42
      1296         4.5920          73.73          92.55           8.35
      1297         4.5940          82.94          92.65           8.89
      1298         4.5960          85.89          92.74           9.05
      1299         4.5980          90.58          92.84           9.30
      1300         4.6000          80.82          92.94           8.78
      1301         4.6020          99.58          93.03           9.75
      1302         4.6040          91.77          93.13           9.36
      1303         4.6060          86.43          93.23           9.08
      1304         4.6080         111.68          93.33          10.31
      1305         4.6100          85.50          93.43           9.01
      1306         4.6120         100.76          93.53           9.78
      1307         4.6140          92.81          93.63           9.41
      1308         4.6160         106.11          93.73          10.06
      1309         4.6180         101.14          93.83           9.82
      1310         4.6200         106.88          93.93          10.09
      1311         4.6220         101.01          94.03           9.81
      1312         4.6240         105.57          94.14          10.04
      1313         4.6260         100.93          94.24           9.82
      1314         4.6280          94.85          94.34           9.53
      1315         4.6300          84.93          94.45           8.99
      1316         4.6320          86.12          94.55           9.06
      1317         4.6340          89.97          94.66           9.26
      1318         4.6360          82.15          94.76           8.85
      1319         4.6380          92.68          94.87           9.40
      1320         4.6400         106.48          94.97          10.08
      1321         4.6420         103.57          95.08           9.95
      1322         4.6440          87.59          95.19           9.15
      1323         4.6460          90.32          95.29           9.29
      1324         4.6480         105.67          95.40          10.04
      1325         4.6500         108.24          95.51          10.18
      1326         4.6520         106.96          95.62          10.10
      1327         4.6540          96.23          95.73           9.58
      1328         4.6560         100.62          95.84           9.80
      1329         4.6580         103.84          95.95           9.96
      1330         4.6600         100.36          96.06           9.80
      1331         4.6620          97.07          96.17           9.63
      1332         4.6640         104.46          96.28          10.00
      1333         4.6660          97.93          96.39           9.64
      1334         4.6680         104.11          96.50           9.96
      1335         4.6700          87.44          96.62           9.13
      1336         4.6720          89.29          96.73           9.23
      1337         4.6740          88.53          96.84           9.20
      1338         4.6760         108.99          96.96          10.20
      1339         4.6780         112.30          97.07          10.37
      1340         4.6800          97.07          97.18           9.63
      1341         4.6820          95.10          97.30           9.53
      1342         4.6840         108.10          97.42          10.16
      1343         4.6860          95.47          97.53           9.55
      1344         4.6880          90.80          97.65           9.29
      1345         4.6900          91.54          97.76           9.35
      1346         4.6920          80.70          97.88           8.77
      1347         4.6940          96.27          98.00           9.58
      1348         4.6960          98.65          98.12           9.70
      1349         4.6980          91.52          98.24           9.35
      1350         4.7000          90.48          98.35           9.28
      1351         4.7020         107.04          98.47          10.09
      1352         4.7040         110.88          98.59          10.30
      1353         4.7060          97.56          98.71           9.65
      1354         4.7080         106.44          98.83          10.09
      1355         4.7100         110.52          98.96          10.27
      1356         4.7120          95.29          99.08           9.53
      1357         4.7140          89.32          99.20           9.23
      1358         4.7160         114.53          99.32          10.44
      1359         4.7180         102.33          99.44           9.87
      1360         4.7200         105.35          99.57          10.03
      1361         4.7220         101.34          99.69           9.83
      1362         4.7240          95.68          99.81           9.56
      1363         4.7260         100.75          99.94           9.81
      1364         4.7280         102.62         100.06           9.87
      1365         4.7300          99.37         100.19           9.72
      1366         4.7320          92.25         100.31           9.39
      1367         4.7340          99.37         100.44           9.74
      1368         4.7360         105.89         100.56          10.05
      1369         4.7380          95.88         100.69           9.55
      1370         4.7400         102.99         100.82           9.91
      1371         4.7420         102.12         100.94           9.87
      1372         4.7440         104.28         101.07           9.96
      1373         4.7460          96.44         101.20           9.59
      1374         4.7480          95.96         101.33           9.57
      1375         4.7500          96.42         101.46           9.59
      1376         4.7520         110.52         101.58          10.27
      1377         4.7540         104.69         101.71           9.96
      1378         4.7560          89.12         101.85           9.20
      1379         4.7580         110.71         101.97          10.26
      1380         4.7600         109.32         102.11          10.21
      1381         4.7620         121.27         102.24          10.74
      1382         4.7640         107.14         102.37          10.11
      1383         4.7660         107.07         102.50          10.11
      1384         4.7680         108.58         102.63          10.18
      1385         4.7700         107.21         102.76          10.11
      1386         4.7720          87.54         102.90           9.13
      1387         4.7740          97.00         103.03           9.61
      1388         4.7760         112.24         103.16          10.34
      1389         4.7780         108.49         103.30          10.18
      1390         4.7800         106.23         103.43          10.07
      1391         4.7820         108.27         103.56          10.17
      1392         4.7840         102.65         103.70           9.90
      1393         4.7860          90.44         103.83           9.29
      1394         4.7880          97.83         103.97           9.65
      1395         4.7900         106.07         104.11          10.06
      1396         4.7920         105.96         104.24          10.04
      1397         4.7940         100.30         104.38           9.77
      1398         4.7960          99.19         104.51           9.72
      1399         4.7980         103.75         104.65           9.94
      1400         4.8000          98.79         104.79           9.71
      1401         4.8020          90.10         104.93           9.26
      1402         4.8040         116.84         105.06          10.53
      1403         4.8060         110.71         105.20          10.28
      1404         4.8080         111.92         105.34          10.34
      1405         4.8100         103.59         105.48           9.95
      1406         4.8120          98.92         105.62           9.72
      1407         4.8140         116.05         105.76          10.51
      1408         4.8160         110.15         105.90          10.25
      1409         4.8180          97.12         106.04           9.63
      1410         4.8200         100.13         106.18           9.78
      1411         4.8220         104.89         106.32           9.99
      1412         4.8240          98.41         106.46           9.69
      1413         4.8260         104.44         106.60           9.99
      1414         4.8280         118.32         106.74          10.62
      1415         4.8300         104.22         106.88           9.97
      1416         4.8320         105.75         107.03          10.05
      1417         4.8340         102.18         107.17           9.87
      1418         4.8360         106.52         107.31          10.08
      1419         4.8380         109.08         107.45          10.20
      1420         4.8400          90.76         107.60           9.27
      1421         4.8420          98.56         107.74           9.69
      1422         4.8440          88.25         107.88           9.18
      1423         4.8460         100.99         108.03           9.80
      1424         4.8480         104.24         108.17           9.97
      1425         4.8500         111.06         108.32          10.30
      1426         4.8520         110.38         108.46          10.27
      1427         4.8540         109.10         108.60          10.21
      1428         4.8560         110.39         108.75          10.27
      1429         4.8580         107.62         108.89          10.14
      1430         4.8600         111.94         109.04          10.34
      1431         4.8620          99.31         109.19           9.72
      1432         4.8640         110.71         109.33          10.28
      1433         4.8660          97.26         109.48           9.63
      1434         4.8680         103.28         109.62           9.91
      1435         4.8700          99.24         109.77           9.73
      1436         4.8720         116.10         109.92          10.52
      1437         4.8740         105.70         110.07          10.05
      1438         4.8760          96.65         110.21           9.60
      1439         4.8780         120.21         110.36          10.69
      1440         4.8800         117.46         110.51          10.59
      1441         4.8820         108.99         110.65          10.19
      1442         4.8840         113.86         110.80          10.42
      1443         4.8860         100.11         110.95           9.77
      1444         4.8880         111.17         111.10          10.30
      1445         4.8900         114.38         111.25          10.44
      1446         4.8920         119.39         111.40          10.65
      1447         4.8940          99.57         111.55           9.72
      1448         4.8960          96.54         111.70           9.59
      1449         4.8980         106.07         111.85          10.03
      1450         4.9000         118.41         112.00          10.61
      1451         4.9020         117.32         112.14          10.56
      1452         4.9040         124.09         112.29          10.88
      1453         4.9060         115.56         112.44          10.49
      1454         4.9080         109.02         112.60          10.20
      1455         4.9100         100.81         112.75           9.81
      1456         4.9120         101.98         112.90           9.85
      1457         4.9140         103.45         113.05           9.92
      1458         4.9160         105.85         113.20          10.03
      1459         4.9180         114.59         113.35          10.44
      1460         4.9200         117.83         113.50          10.60
      1461         4.9220         116.07         113.65          10.52
      1462         4.9240         112.84         113.80          10.36
      1463         4.9260         103.87         113.95           9.94
      1464         4.9280         109.72         114.11          10.23
      1465         4.9300         117.94         114.26          10.61
      1466         4.9320         110.34         114.41          10.24
      1467         4.9340         112.96         114.56          10.38
      1468         4.9360          97.06         114.71           9.60
      1469         4.9380         112.22         114.87          10.34
      1470         4.9400         106.95         115.02          10.09
      1471         4.9420         104.16         115.17           9.97
      1472         4.9440         103.96         115.32           9.96
      1473         4.9460         101.52         115.48           9.84
      1474         4.9480         104.04         115.63           9.96
      1475         4.9500         111.94         115.78          10.33
      1476         4.9520         124.00         115.93          10.86
      1477         4.9540         117.74         116.09          10.60
      1478         4.9560          96.07         116.24           9.56
      1479         4.9580         110.51         116.39          10.24
      1480         4.9600         115.27         116.55          10.48
      1481         4.9620         103.31         116.70           9.90
      1482         4.9640         108.08         116.85          10.15
      1483         4.9660         121.96         117.01          10.78
      1484         4.9680         110.03         117.16          10.23
      1485         4.9700         117.47         117.31          10.57
      1486         4.9720         123.92         117.47          10.86
      1487         4.9740         127.11         117.62          11.01
      1488         4.9760         106.33         117.77          10.03
      1489         4.9780         120.56         117.93          10.69
      1490         4.9800         112.32         118.08          10.34
      1491         4.9820         106.52         118.24          10.07
      1492         4.9840         118.06         118.39          10.60
      1493         4.9860         112.19         118.54          10.32
      1494         4.9880         112.19         118.70          10.34
      1495         4.9900         111.51         118.85          10.30
      1496         4.9920         104.43         119.00           9.97
      1497         4.9940         126.43         119.16          10.97
      1498         4.9960         118.76         119.31          10.61
      1499         4.9980         120.73         119.47          10.72
      1500         5.0000         120.54         119.62          10.72
      1501         5.0020         102.19         119.78           9.86
      1502         5.0040         114.54         119.93          10.44
      1503         5.0060         106.24         120.08          10.05
      1504         5.0080         129.92         120.24          11.11
      1505         5.0100         113.55         120.39          10.39
      1506         5.0120         119.54         120.54          10.64
      1507         5.0140         111.53         120.70          10.30
      1508         5.0160         126.13         120.85          10.95
      1509         5.0180         127.39         121.00          11.02
      1510         5.0200         111.14         121.16          10.28
      1511         5.0220         105.43         121.31          10.02
      1512         5.0240         115.75         121.47          10.51
      1513         5.0260         124.07         121.62          10.86
      1514         5.0280         101.12         121.77           9.80
      1515         5.0300         112.07         121.93          10.32
      1516         5.0320         108.52         122.08          10.16
      1517         5.0340         108.32         122.23          10.16
      1518         5.0360         118.65         122.39          10.63
      1519         5.0380         115.60         122.54          10.50
      1520         5.0400         125.81         122.69          10.94
      1521         5.0420         119.32         122.85          10.66
      1522         5.0440         129.24         123.00          11.09
      1523         5.0460         124.43         123.15          10.87
      1524         5.0480         121.62         123.31          10.76
      1525         5.0500         125.16         123.46          10.90
      1526         5.0520         121.10         123.61          10.73
      1527         5.0540         107.17         123.76          10.10
      1528         5.0560         127.07         123.92          11.00
      1529         5.0580         124.83         124.07          10.91
      1530         5.0600         125.01         124.22          10.91
      1531         5.0620         120.96         124.37          10.73
      1532         5.0640         120.93         124.53          10.74
      1533         5.0660         127.62         124.68          11.02
      1534         5.0680         135.05         124.83          11.34
      1535         5.0700         122.32         124.98          10.79
      1536         5.0720         124.32         125.13          10.88
      1537         5.0740         118.21         125.28          10.61
      1538         5.0760         114.71         125.43          10.46
      1539         5.0780         122.93         125.58          10.83
      1540         5.0800         138.53         125.74          11.48
      1541         5.0820         120.99         125.89          10.72
      1542         5.0840         129.91         126.04          11.12
      1543         5.0860         135.89         126.19          11.36
      1544         5.0880         121.88         126.34          10.76
      1545         5.0900         121.61         126.49          10.75
      1546         5.0920         118.14         126.64          10.60
      1547         5.0940         122.09         126.79          10.78
      1548         5.0960         137.07         126.94          11.41
      1549         5.0980         136.72         127.09          11.41
      1550         5.1000         146.55         127.24          11.81
      1551         5.1020         133.27         127.39          11.26
      1552         5.1040         131.09         127.54          11.18
      1553         5.1060         115.28         127.68          10.47
      1554         5.1080         116.00         127.83          10.51
      1555         5.1100         128.99         127.98          11.07
      1556         5.1120         121.82         128.13          10.76
      1557         5.1140         121.47         128.28          10.76
      1558         5.1160         133.46         128.43          11.27
      1559         5.1180         143.14         128.57          11.68
      1560         5.1200         148.11         128.72          11.86
      1561         5.1220         134.14         128.87          11.29
      1562         5.1240         132.86         129.01          11.25
      1563         5.1260         127.18         129.16          11.00
      1564         5.1280         128.17         129.31          11.05
      1565         5.1300         120.95         129.45          10.74
      1566         5.1320         128.06         129.60          11.04
      1567         5.1340         134.05         129.74          11.30
      1568         5.1360         141.26         129.89          11.60
      1569         5.1380         135.67         130.04          11.36
      1570         5.1400         122.64         130.18          10.80
      1571         5.1420         118.36         130.33          10.61
      1572         5.1440         121.10         130.47          10.74
      1573         5.1460         111.47         130.61          10.30
      1574         5.1480         117.10         130.76          10.56
      1575         5.1500         122.99         130.90          10.83
      1576         5.1520         134.12         131.04          11.29
      1577         5.1540         123.19         131.19          10.82
      1578         5.1560         119.17         131.33          10.65
      1579         5.1580         133.59         131.47          11.27
      1580         5.1600         122.78         131.62          10.81
      1581         5.1620         144.83         131.76          11.72
      1582         5.1640         143.01         131.90          11.67
      1583         5.1660         138.13         132.04          11.45
      1584         5.1680         135.99         132.18          11.36
      1585         5.1700         121.30         132.32          10.73
      1586         5.1720         132.64         132.46          11.24
      1587         5.1740         120.68         132.60          10.72
      1588         5.1760         120.85         132.74          10.72
      1589         5.1780         127.73         132.88          11.02
      1590         5.1800         138.16         133.02          11.47
      1591         5.1820         133.61         133.16          11.27
      1592         5.1840         143.69         133.30          11.69
      1593         5.1860         132.58         133.44          11.22
      1594         5.1880         118.84         133.58          10.62
      1595         5.1900         126.03         133.71          10.96
      1596         5.1920         127.74         133.85          11.03
      1597         5.1940         135.26         133.99          11.35
      1598         5.1960         116.89         134.13          10.54
      1599         5.1980         130.71         134.26          11.16
      1600         5.2000         126.78         134.40          10.99
      1601         5.2020         130.80         134.53          11.16
      1602         5.2040         110.11         134.67          10.23
      1603         5.2060         128.72         134.80          11.04
      1604         5.2080         119.18         134.94          10.64
      1605         5.2100         126.28         135.07          10.97
      1606         5.2120         134.00         135.21          11.30
      1607         5.2140         133.30         135.34          11.26
      1608         5.2160         140.74         135.47          11.56
      1609         5.2180         127.52         135.60          11.01
      1610         5.2200         118.19         135.74          10.60
      1611         5.2220         131.75         135.87          11.19
      1612         5.2240         133.74         136.00          11.29
      1613         5.2260         126.19         136.13          10.96
      1614         5.2280         122.14         136.26          10.79
      1615         5.2300         127.30         136.39          10.99
      1616         5.2320         141.27         136.52          11.58
      1617         5.2340         138.49         136.65          11.48
      1618         5.2360         137.86         136.78          11.44
      1619         5.2380         142.26         136.91          11.63
      1620         5.2400         132.79         137.04          11.24
      1621         5.2420         132.26         137.17          11.21
      1622         5.2440         126.30         137.29          10.96
      1623         5.2460         142.65         137.42          11.65
      1624         5.2480         146.58         137.55          11.82
      1625         5.2500         139.87         137.67          11.55
      1626         5.2520         123.89         137.80          10.85
      1627         5.2540         143.17         137.93          11.67
      1628         5.2560         113.15         138.05          10.36
      1629         5.2580         129.62         138.18          11.09
      1630         5.2600         133.24         138.30          11.26
      1631         5.2620         132.76         138.42          11.23
      1632         5.2640         120.01         138.55          10.69
      1633         5.2660         131.00         138.67          11.15
      1634         5.2680         140.69         138.79          11.57
      1635         5.2700         118.65         138.91          10.61
      1636         5.2720         143.33         139.03          11.65
      1637         5.2740         141.33         139.15          11.59
      1638         5.2760         139.90         139.28          11.54
      1639         5.2780         130.74         139.40          11.16
      1640         5.2800         140.09         139.51          11.55
      1641         5.2820         145.41         139.63          11.77
      1642         5.2840         124.67         139.75          10.88
      1643         5.2860         144.15         139.87          11.69
      1644         5.2880         138.95         139.99          11.48
      1645         5.2900         142.51         140.11          11.63
      1646         5.2920         145.80         140.22          11.78
      1647         5.2940         144.86         142.69          11.74
      1648         5.2960         151.69         142.95          12.02
      1649         5.2980         145.24         143.23          11.76
      1650         5.3000         161.61         143.52          12.39
      1651         5.3020         147.32         143.83          11.84
      1652         5.3040         146.28         144.16          11.80
      1653         5.3060         143.99         144.52          11.70
      1654         5.3080         138.50         144.90          11.48
      1655         5.3100         134.69         145.32          11.33
      1656         5.3120         147.90         145.77          11.87
      1657         5.3140         142.98         146.27          11.67
      1658         5.3160         148.17         146.82          11.87
      1659         5.3180         156.68         147.43          12.21
      1660         5.3200         151.43         148.12          12.01
      1661         5.3220         149.79         148.90          11.95
      1662         5.3240         146.20         149.79          11.80
      1663         5.3260         155.98         150.81          12.19
      1664         5.3280         166.51         152.01          12.57
      1665         5.3300         156.14         153.43          12.19
      1666         5.3320         172.52         155.12          12.81
      1667         5.3340         185.02         164.06          13.27
      1668         5.3360         180.38         167.03          13.10
      1669         5.3380         178.11         170.70          13.02
      1670         5.3400         181.37         175.32          13.14
      1671         5.3420         174.93         181.29          12.90
      1672         5.3440         205.75         189.24          13.99
      1673         5.3460         210.88         200.25          14.17
      1674         5.3480         238.88         216.56          15.08
      1675         5.3500         260.59         243.82          15.76
      1676         5.3520         310.32         296.15          17.19
      1677         5.3540         440.85         400.62          20.46
      1678         5.3560         673.13         588.11          25.26
      1679         5.3580         906.72         850.15          29.38
      1680         5.3600        1051.52        1035.38          31.66
      1681         5.3620         840.13         924.78          28.17
      1682         5.3640         640.82         663.80          24.65
      1683         5.3660         464.12         455.20          20.95
      1684         5.3680         395.54         334.72          19.38
      1685         5.3700         345.48         276.17          18.12
      1686         5.3720         360.03         249.58          18.51
      1687         5.3740         298.72         237.73          16.83
      1688         5.3760         280.45         233.57          16.33
      1689         5.3780         289.86         234.75          16.62
      1690         5.3800         317.65         240.72          17.39
      1691         5.3820         323.26         251.87          17.53
      1692         5.3840         328.99         269.54          17.69
      1693         5.3860         381.91         296.56          19.03
      1694         5.3880         431.59         339.09          20.26
      1695         5.3900         501.48         413.01          21.84
      1696         5.3920         652.83         558.05          24.88
      1697         5.3940         885.92         851.00          28.99
      1698         5.3960        1388.42        1380.84          36.17
      1699         5.3980        2236.05        2130.18          45.91
      1700         5.4000        2811.91        2681.36          51.67
      1701         5.4020        2551.08        2386.25          49.24
      1702         5.4040        1643.70        1626.65          39.34
      1703         5.4060        1015.72        1003.90          30.96
      1704         5.4080         639.98         634.77          24.59
      1705         5.4100         470.51         446.84          21.14
      1706         5.4120         380.98         352.49          19.03
      1707         5.4140         290.23         299.54          16.59
      1708         5.4160         267.83         265.60          15.95
      1709         5.4180         257.69         241.98          15.65
      1710         5.4200         256.41         224.79          15.64
      1711         5.4220         224.04         211.91          14.57
      1712         5.4240         203.00         202.01          13.90
      1713         5.4260         191.26         194.24          13.50
      1714         5.4280         179.34         185.80          13.08
      1715         5.4300         161.24         180.91          12.39
      1716         5.4320         179.42         176.91          13.05
      1717         5.4340         186.43         173.60          13.33
      1718         5.4360         159.02         170.83          12.30
      1719         5.4380         161.15         170.55          12.38
      1720         5.4400         167.36         168.69          12.62
      1721         5.4420         158.23         167.13          12.26
      1722         5.4440         160.82         165.82          12.36
      1723         5.4460         170.38         164.72          12.73
      1724         5.4480         156.87         163.80          12.22
      1725         5.4500         160.89         163.04          12.37
      1726         5.4520         160.69         162.43          12.36
      1727         5.4540         157.95         161.94          12.25
      1728         5.4560         171.41         161.56          12.77
      1729         5.4580         175.32         161.30          12.91
      1730         5.4600         164.82         161.16          12.53
      1731         5.4620         166.58         161.12          12.58
      1732         5.4640         164.61         161.19          12.51
      1733         5.4660         184.46         161.38          13.24
      1734         5.4680         184.82         155.09          13.27
      1735         5.4700         154.89         155.95          12.12
      1736         5.4720         167.50         156.94          12.61
      1737         5.4740         172.63         158.12          12.82
      1738         5.4760         174.73         159.54          12.88
      1739         5.4780         186.77         161.26          13.32
      1740         5.4800         179.16         163.38          13.06
      1741         5.4820         165.44         166.04          12.53
      1742         5.4840         185.55         169.46          13.28
      1743         5.4860         201.33         173.94          13.83
      1744         5.4880         227.76         179.98          14.70
      1745         5.4900         231.58         188.43          14.84
      1746         5.4920         257.57         201.01          15.61
      1747         5.4940         255.10         221.91          15.56
      1748         5.4960         301.53         261.51          16.89
      1749         5.4980         374.24         340.49          18.83
      1750         5.5000         458.34         484.61          20.85
      1751         5.5020         530.93         696.07          22.44
      1752         5.5040         679.62         876.45          25.37
      1753         5.5060         722.58         828.24          26.20
      1754         5.5080         667.82         614.60          25.22
      1755         5.5100         509.80         423.93          22.03
      1756         5.5120         391.29         306.03          19.32
      1757         5.5140         297.80         244.46          16.84
      1758         5.5160         251.34         213.54          15.47
      1759         5.5180         233.34         196.54          14.92
      1760         5.5200         200.21         185.86          13.80
      1761         5.5220         204.04         178.53          13.94
      1762         5.5240         196.56         173.24          13.69
      1763         5.5260         185.97         169.30          13.28
      1764         5.5280         158.27         166.29          12.25
      1765         5.5300         168.04         163.96          12.65
      1766         5.5320         167.74         162.10          12.62
      1767         5.5340         165.48         160.62          12.55
      1768         5.5360         159.36         159.40          12.31
      1769         5.5380         143.25         158.40          11.68
      1770         5.5400         148.98         157.57          11.92
      1771         5.5420         172.90         156.88          12.83
      1772         5.5440         161.73         156.29          12.40
      1773         5.5460         153.50         155.79          12.08
      1774         5.5480         155.81         155.36          12.18
      1775         5.5500         166.28         154.99          12.58
      1776         5.5520         158.49         154.67          12.28
      1777         5.5540         155.23         154.39          12.17
      1778         5.5560         151.16         154.15          11.99
      1779         5.5580         172.78         153.93          12.82
      1780         5.5600         159.09         153.75          12.31
      1781         5.5620         147.44         153.58          11.85
      1782         5.5640         138.23         153.44          11.46
      1783         5.5660         148.40         153.31          11.88
      1784         5.5680         151.02         153.20          11.98
      1785         5.5700         157.72         153.09          12.24
      1786         5.5720         161.30         153.01          12.38
      1787         5.5740         165.75         151.03          12.56
      1788         5.5760         166.91         151.07          12.60
      1789         5.5780         148.88         151.10          11.90
      1790         5.5800         147.89         151.13          11.85
      1791         5.5820         161.95         151.16          12.41
      1792         5.5840         142.13         151.19          11.63
      1793         5.5860         149.67         151.22          11.94
      1794         5.5880         149.38         151.25          11.92
      1795         5.5900         173.00         151.28          12.84
      1796         5.5920         161.88         151.31          12.41
      1797         5.5940         165.25         151.33          12.56
      1798         5.5960         145.24         151.36          11.75
      1799         5.5980         150.81         151.39          11.99
      1800         5.6000         160.19         151.41          12.36
      1801         5.6020         164.25         151.44          12.51
      1802         5.6040         161.21         151.46          12.36
      1803         5.6060         159.98         151.48          12.33
      1804         5.6080         154.66         151.51          12.14
      1805         5.6100         154.84         151.53          12.15
      1806         5.6120         167.41         151.55          12.62
      1807         5.6140         165.87         151.57          12.58
      1808         5.6160         155.70         151.59          12.17
      1809         5.6180         167.49         151.82          12.63
      1810         5.6200         151.02         151.85          12.00
      1811         5.6220         171.35         151.88          12.77
      1812         5.6240         159.23         151.91          12.31
      1813         5.6260         160.76         151.95          12.37
      1814         5.6280         176.91         151.98          12.98
      1815         5.6300         175.74         152.02          12.93
      1816         5.6320         183.58         152.06          13.22
      1817         5.6340         164.62         152.10          12.51
      1818         5.6360         169.78         152.14          12.70
      1819         5.6380         180.11         152.18          13.10
      1820         5.6400         186.15         152.23          13.32
      1821         5.6420         170.67         152.28          12.75
      1822         5.6440         170.62         152.34          12.74
      1823         5.6460         145.57         152.40          11.76
      1824         5.6480         169.64         152.48          12.69
      1825         5.6500         144.99         152.56          11.73
      1826         5.6520         153.15         152.65          12.06
      1827         5.6540         143.48         152.76          11.68
      1828         5.6560         137.04         152.89          11.42
      1829         5.6580         155.93         153.04          12.19
      1830         5.6600         169.37         153.22          12.70
      1831         5.6620         161.48         153.45          12.39
      1832         5.6640         164.30         153.74          12.51
      1833         5.6660         148.12         154.10          11.86
      1834         5.6680         148.86         154.58          11.90
      1835         5.6700         152.84         155.23          12.07
      1836         5.6720         145.79         156.13          11.79
      1837         5.6740         159.00         157.49          12.31
      1838         5.6760         147.10         159.77          11.83
      1839         5.6780         152.73         164.06          12.06
      1840         5.6800         162.51         172.46          12.44
      1841         5.6820         159.89         187.39          12.33
      1842         5.6840         204.30         208.68          13.92
      1843         5.6860         199.71         225.89          13.78
      1844         5.6880         198.89         220.08          13.75
      1845         5.6900         187.20         198.69          13.35
      1846         5.6920         165.82         179.81          12.57
      1847         5.6940         153.90         168.03          12.12
      1848         5.6960         148.68         161.77          11.90
      1849         5.6980         123.63         158.57          10.84
      1850         5.7000         152.18         156.79          12.02
      1851         5.7020         144.26         155.66          11.72
      1852         5.7040         156.47         154.89          12.20
      1853         5.7060         147.63         154.32          11.85
      1854         5.7080         150.27         153.89          11.97
      1855         5.7100         157.38         153.57          12.25
      1856         5.7120         155.66         153.30          12.17
      1857         5.7140         138.73         153.10          11.49
      1858         5.7160         152.05         152.92          12.03
      1859         5.7180         161.04         152.78          12.38
      1860         5.7200         154.10         152.66          12.11
      1861         5.7220         153.88         152.56          12.07
      1862         5.7240         155.90         152.47          12.17
      1863         5.7260         165.09         152.39          12.55
      1864         5.7280         155.45         152.32          12.15
      1865         5.7300         146.33         152.25          11.81
      1866         5.7320         160.60         152.20          12.37
      1867         5.7340         163.01         152.14          12.46
      1868         5.7360         171.12         152.09          12.77
      1869         5.7380         152.94         152.05          12.06
      1870         5.7400         152.54         152.00          12.05
      1871         5.7420         152.60         151.96          12.05
      1872         5.7440         152.60         151.92          12.07
      1873         5.7460         161.41         151.89          12.39
      1874         5.7480         155.95         151.85          12.18
      1875         5.7500         151.39         151.82          12.02
      1876         5.7520         153.85         151.78          12.11
      1877         5.7540         153.30         151.75          12.09
      1878         5.7560         155.10         151.51          12.15
      1879         5.7580         145.53         151.49          11.77
      1880         5.7600         162.67         151.47          12.44
      1881         5.7620         142.73         151.45          11.64
      1882         5.7640         139.97         151.43          11.56
      1883         5.7660         153.20         151.40          12.07
      1884         5.7680         161.09         151.38          12.39
      1885         5.7700         140.19         151.35          11.53
      1886         5.7720         164.46         151.33          12.49
      1887         5.7740         162.04         151.30          12.42
      1888         5.7760         160.56         151.28          12.36
      1889         5.7780         140.98         151.25          11.58
      1890         5.7800         134.08         151.22          11.30
      1891         5.7820         156.42         151.20          12.19
      1892         5.7840         137.47         151.17          11.43
      1893         5.7860         144.15         151.14          11.70
      1894         5.7880         127.47         151.11          11.00
      1895         5.7900         130.90         151.08          11.16
      1896         5.7920         137.46         151.05          11.44
      1897         5.7940         127.56         151.02          10.99
      1898         5.7960         154.89         150.99          12.13
      1899         5.7980         131.24         150.96          11.17
      1900         5.8000         137.92         150.92          11.46
      1901         5.8020         136.72         150.89          11.41
      1902         5.8040         143.35         150.86          11.69
      1903         5.8060         145.65         150.82          11.77
      1904         5.8080         138.07         150.79          11.46
      1905         5.8100         143.98         150.76          11.71
      1906         5.8120         153.42         150.72          12.09
      1907         5.8140         162.76         150.68          12.44
      1908         5.8160         146.16         150.65          11.78
      1909         5.8180         160.02         150.61          12.34
      1910         5.8200         146.94         150.57          11.82
      1911         5.8220         163.86         150.54          12.48
      1912         5.8240         151.74         150.50          12.02
      1913         5.8260         143.80         150.46          11.69
      1914         5.8280         146.64         150.42          11.82
      1915         5.8300         142.22         150.38          11.65
      1916         5.8320         132.64         150.34          11.22
      1917         5.8340         136.63         150.30          11.40
      1918         5.8360         154.30         150.26          12.12
      1919         5.8380         156.24         150.22          12.21
      1920         5.8400         160.72         150.18          12.37
      1921         5.8420         138.29         150.14          11.46
      1922         5.8440         158.45         150.09          12.26
      1923         5.8460         143.92         150.05          11.69
      1924         5.8480         162.42         150.01          12.43
      1925         5.8500         155.61         149.96          12.16
      1926         5.8520         144.88         149.92          11.73
      1927         5.8540         134.20         149.87          11.29
      1928         5.8560         136.75         149.83          11.40
      1929         5.8580         135.30         149.78          11.35
      1930         5.8600         143.97         149.74          11.70
      1931         5.8620         158.11         149.69          12.27
      1932         5.8640         150.26         149.64          11.97
      1933         5.8660         133.05         149.60          11.23
      1934         5.8680         156.48         149.55          12.20
      1935         5.8700         140.81         149.50          11.58
      1936         5.8720         144.95         149.45          11.74
      1937         5.8740         143.33         149.40          11.68
      1938         5.8760         137.97         149.35          11.46
      1939         5.8780         148.65         149.30          11.90
      1940         5.8800         145.77         149.25          11.79
      1941         5.8820         158.81         149.20          12.28
      1942         5.8840         154.13         149.15          12.12
      1943         5.8860         156.39         149.10          12.18
      1944         5.8880         153.41         149.05          12.07
      1945         5.8900         158.25         149.00          12.27
      1946         5.8920         151.60         148.94          12.01
      1947         5.8940         150.17         148.89          11.95
      1948         5.8960         147.46         148.84          11.84
      1949         5.8980         148.81         148.78          11.91
      1950         5.9000         134.51         148.73          11.32
      1951         5.9020         135.81         148.68          11.34
      1952         5.9040         141.61         148.62          11.60
      1953         5.9060         136.13         148.56          11.37
      1954         5.9080         147.76         148.51          11.85
      1955         5.9100         162.01         148.45          12.41
      1956         5.9120         169.06         148.40          12.69
      1957         5.9140         130.33         148.34          11.11
      1958         5.9160         139.92         148.28          11.53
      1959         5.9180         133.33         148.23          11.27
      1960         5.9200         141.34         148.17          11.61
      1961         5.9220         164.86         148.11          12.53
      1962         5.9240         156.42         148.05          12.20
      1963         5.9260         152.76         147.99          12.06
      1964         5.9280         173.98         147.93          12.87
      1965         5.9300         163.20         147.87          12.46
      1966         5.9320         147.72         147.81          11.85
      1967         5.9340         144.74         147.75          11.74
      1968         5.9360         137.14         147.69          11.42
      1969         5.9380         164.23         147.63          12.50
      1970         5.9400         142.95         147.57          11.65
      1971         5.9420         154.47         147.51          12.11
      1972         5.9440         139.58         147.45          11.52
      1973         5.9460         149.12         147.38          11.91
      1974         5.9480         135.41         147.32          11.32
      1975         5.9500         126.58         147.26          10.96
      1976         5.9520         155.76         147.19          12.16
      1977         5.9540         145.66         147.13          11.78
      1978         5.9560         132.99         148.13          11.25
      1979         5.9580         152.18         148.13          12.04
      1980         5.9600         147.35         148.14          11.81
      1981         5.9620         143.23         148.15          11.66
      1982         5.9640         132.02         148.17          11.21
      1983         5.9660         135.04         148.19          11.34
      1984         5.9680         133.16         148.23          11.25
      1985         5.9700         141.82         148.27          11.62
      1986         5.9720         140.98         148.33          11.57
      1987         5.9740         132.56         148.40          11.23
      1988         5.9760         133.35         148.49          11.26
      1989         5.9780         150.15         148.60          11.95
      1990         5.9800         143.74         148.73          11.71
      1991         5.9820         158.82         148.89          12.29
      1992         5.9840         154.53         149.07          12.13
      1993         5.9860         142.41         149.30          11.64
      1994         5.9880         128.54         149.58          11.06
      1995         5.9900         146.15         149.91          11.78
      1996         5.9920         169.10         150.31          12.68
      1997         5.9940         138.57         150.80          11.47
      1998         5.9960         139.69         151.40          11.53
      1999         5.9980         162.66         152.15          12.44
      2000         6.0000         159.75         153.08          12.64
      2001         6.0020         165.71         154.26          12.89
      2002         6.0040         147.95         155.77          12.20
      2003         6.0060         151.81         157.75          12.42
      2004         6.0080         161.01         160.39          12.81
      2005         6.0100         157.78         164.02          12.62
      2006         6.0120         165.75         169.20          12.90
      2007         6.0140         190.20         177.19          13.87
      2008         6.0160         185.89         190.93          13.71
      2009         6.0180         217.08         216.84          14.70
      2010         6.0200         280.27         265.29          16.78
      2011         6.0220         319.43         345.97          18.03
      2012         6.0240         450.59         450.73          21.36
      2013         6.0260         534.38         515.68          23.24
      2014         6.0280         484.43         465.88          22.07
      2015         6.0300         332.29         361.06          18.19
      2016         6.0320         255.88         275.10          16.00
      2017         6.0340         227.01         221.98          15.15
      2018         6.0360         190.42         193.21          13.86
      2019         6.0380         190.30         177.96          13.82
      2020         6.0400         183.21         169.19          13.60
      2021         6.0420         170.45         163.53          13.12
      2022         6.0440         182.93         159.57          13.56
      2023         6.0460         159.15         156.65          12.66
      2024         6.0480         151.91         154.44          12.44
      2025         6.0500         146.19         152.72          12.13
      2026         6.0520         160.60         152.53          12.73
      2027         6.0540         155.72         151.49          12.52
      2028         6.0560         148.69         150.65          12.25
      2029         6.0580         137.65         149.96          11.77
      2030         6.0600         149.58         149.40          12.25
      2031         6.0620         154.21         148.94          12.49
      2032         6.0640         168.65         148.56          13.06
      2033         6.0660         160.99         148.26          12.75
      2034         6.0680         150.58         148.01          12.35
      2035         6.0700         159.97         147.82          12.68
      2036         6.0720         148.84         147.68          12.23
      2037         6.0740         156.93         147.59          12.60
      2038         6.0760         161.21         147.55          12.77
      2039         6.0780         137.09         147.55          11.78
      2040         6.0800         132.81         147.61          11.58
      2041         6.0820         132.59         147.72          11.56
      2042         6.0840         150.23         147.89          12.35
      2043         6.0860         147.03         148.14          12.17
      2044         6.0880         126.65         148.46          11.30
      2045         6.0900         138.69         148.89          11.81
      2046         6.0920         162.32         149.44          12.73
      2047         6.0940         156.49         150.14          12.53
      2048         6.0960         160.48         151.04          12.79
      2049         6.0980         158.07         151.17          12.67
      2050         6.1000         160.60         152.71          12.77
      2051         6.1020         160.02         154.71          12.71
      2052         6.1040         162.72         157.35          12.87
      2053         6.1060         168.35         160.93          13.07
      2054         6.1080         175.62         165.94          13.36
      2055         6.1100         204.77         173.39          14.45
      2056         6.1120         224.77         185.58          15.09
      2057         6.1140         257.21         207.77          16.18
      2058         6.1160         344.86         249.65          18.77
      2059         6.1180         433.47         323.14          21.09
      2060         6.1200         489.14         431.11          22.33
      2061         6.1220         503.01         534.58          22.53
      2062         6.1240         461.08         535.50          21.37
      2063         6.1260         353.16         432.64          18.65
      2064         6.1280         261.78         324.14          16.10
      2065         6.1300         207.75         249.90          14.42
      2066         6.1320         195.37         207.49          13.98
      2067         6.1340         179.20         184.93          13.40
      2068         6.1360         170.90         172.47          13.07
      2069         6.1380         159.96         164.81          12.69
      2070         6.1400         148.46         159.61          12.26
      2071         6.1420         165.15         155.85          12.93
      2072         6.1440         153.48         153.03          12.45
      2073         6.1460         160.60         150.86          12.69
      2074         6.1480         153.07         149.15          12.42
      2075         6.1500         151.09         147.78          12.38
      2076         6.1520         140.09         146.65          11.96
      2077         6.1540         140.06         145.72          11.88
      2078         6.1560         143.48         144.93          11.98
      2079         6.1580         132.84         144.25          11.53
      2080         6.1600         139.78         143.67          11.85
      2081         6.1620         139.91         143.16          11.85
      2082         6.1640         133.66         142.71          11.62
      2083         6.1660         146.07         142.31          12.13
      2084         6.1680         160.07         141.95          12.72
      2085         6.1700         148.94         141.63          12.27
      2086         6.1720         148.31         141.33          12.22
      2087         6.1740         126.83         141.06          11.34
      2088         6.1760         131.75         140.80          11.56
      2089         6.1780         135.90         140.57          11.77
      2090         6.1800         145.90         140.35          12.08
      2091         6.1820         127.17         140.15          11.31
      2092         6.1840         133.57         139.95          11.62
      2093         6.1860         122.12         139.77          11.12
      2094         6.1880         111.56         139.60          10.61
      2095         6.1900         115.35         139.43          10.77
      2096         6.1920         125.09         139.27          11.23
      2097         6.1940         130.40         139.12          11.50
      2098         6.1960         147.26         137.85          12.14
      2099         6.1980         140.53         137.76          11.87
      2100         6.2000         140.22         137.68          11.87
      2101         6.2020         124.88         137.60          11.23
      2102         6.2040         133.39         137.51          11.59
      2103         6.2060         140.03         137.43          11.88
      2104         6.2080         124.93         137.34          11.20
      2105         6.2100         122.45         137.26          11.08
      2106         6.2120         134.44         137.18          11.67
      2107         6.2140         143.23         137.09          12.03
      2108         6.2160         139.16         137.01          11.85
      2109         6.2180         127.23         136.92          11.39
      2110         6.2200         122.87         136.84          11.20
      2111         6.2220         130.31         136.76          11.43
      2112         6.2240         133.92         136.67          11.56
      2113         6.2260         142.66         136.59          12.00
      2114         6.2280         136.25         136.50          11.71
      2115         6.2300         130.20         136.42          11.45
      2116         6.2320         133.93         136.34          11.69
      2117         6.2340         128.88         136.25          11.47
      2118         6.2360         140.31         136.17          11.90
      2119         6.2380         140.88         136.09          11.89
      2120         6.2400         132.96         136.00          11.58
      2121         6.2420         143.38         135.92          12.03
      2122         6.2440         145.80         135.83          12.15
      2123         6.2460         126.71         136.48          11.28
      2124         6.2480         127.72         136.44          11.30
      2125         6.2500         150.18         136.40          12.33
      2126         6.2520         145.42         137.96          12.13
      2127         6.2540         144.32         138.02          12.02
      2128         6.2560         128.32         138.10          11.31
      2129         6.2580         133.01         138.19          11.64
      2130         6.2600         137.41         138.29          11.77
      2131         6.2620         135.36         138.42          11.66
      2132         6.2640         137.52         138.57          11.77
      2133         6.2660         139.96         138.75          11.91
      2134         6.2680         138.78         138.95          11.85
      2135         6.2700         139.45         139.19          11.89
      2136         6.2720         145.42         139.46          12.09
      2137         6.2740         131.44         139.78          11.49
      2138         6.2760         153.37         140.16          12.44
      2139         6.2780         154.48         140.60          12.54
      2140         6.2800         147.10         141.11          12.24
      2141         6.2820         152.79         141.72          12.44
      2142         6.2840         158.30         142.43          12.71
      2143         6.2860         155.43         143.29          12.55
      2144         6.2880         139.18         144.31          11.86
      2145         6.2900         145.41         145.54          12.13
      2146         6.2920         147.49         147.04          12.23
      2147         6.2940         154.29         148.89          12.43
      2148         6.2960         147.86         151.20          12.15
      2149         6.2980         156.21         154.12          12.60
      2150         6.3000         169.16         157.89          13.03
      2151         6.3020         177.88         162.86          13.35
      2152         6.3040         175.93         169.63          13.32
      2153         6.3060         168.92         179.39          12.98
      2154         6.3080         202.54         194.60          14.27
      2155         6.3100         225.63         220.29          15.14
      2156         6.3120         265.45         264.74          16.40
      2157         6.3140         362.55         337.97          19.10
      2158         6.3160         500.20         443.37          22.46
      2159         6.3180         646.91         555.28          25.65
      2160         6.3200         729.85         637.77          27.28
      2161         6.3220         780.39         717.96          28.17
      2162         6.3240         799.49         767.84          28.32
      2163         6.3260         682.36         682.62          26.03
      2164         6.3280         477.61         515.15          21.75
      2165         6.3300         330.49         372.67          18.16
      2166         6.3320         237.54         280.73          15.45
      2167         6.3340         206.65         228.33          14.42
      2168         6.3360         191.29         199.42          13.83
      2169         6.3380         173.45         184.01          13.18
      2170         6.3400         157.44         173.11          12.62
      2171         6.3420         164.51         165.48          12.88
      2172         6.3440         159.46         159.88          12.68
      2173         6.3460         162.74         155.65          12.81
      2174         6.3480         148.90         152.38          12.27
      2175         6.3500         152.64         149.82          12.43
      2176         6.3520         162.18         147.78          12.79
      2177         6.3540         161.68         146.15          12.78
      2178         6.3560         159.55         144.83          12.69
      2179         6.3580         157.38         143.77          12.61
      2180         6.3600         146.06         142.92          12.15
      2181         6.3620         152.04         142.25          12.42
      2182         6.3640         137.33         141.73          11.81
      2183         6.3660         132.96         141.35          11.61
      2184         6.3680         145.81         141.10          12.16
      2185         6.3700         144.17         140.97          12.06
      2186         6.3720         155.84         140.98          12.56
      2187         6.3740         147.15         141.11          12.23
      2188         6.3760         132.59         141.40          11.59
      2189         6.3780         159.39         141.84          12.74
      2190         6.3800         156.98         142.48          12.65
      2191         6.3820         158.74         143.35          12.66
      2192         6.3840         159.10         144.52          12.69
      2193         6.3860         168.82         146.06          13.07
      2194         6.3880         180.83         148.09          13.55
      2195         6.3900         186.57         150.79          13.74
      2196         6.3920         199.53         153.73          14.23
      2197         6.3940         208.85         158.76          14.53
      2198         6.3960         210.63         165.92          14.65
      2199         6.3980         254.92         176.74          16.03
      2200         6.4000         275.73         193.32          16.81
      2201         6.4020         326.30         226.15          18.23
      2202         6.4040         414.30         286.22          20.60
      2203         6.4060         496.35         386.88          22.61
      2204         6.4080         568.33         525.78          24.09
      2205         6.4100         539.89         641.38          23.27
      2206         6.4120         498.62         617.73          22.16
      2207         6.4140         408.90         483.35          20.02
      2208         6.4160         318.89         352.80          17.70
      2209         6.4180         249.76         264.67          15.75
      2210         6.4200         229.97         213.81          15.13
      2211         6.4220         187.49         186.15          13.65
      2212         6.4240         168.29         170.51          12.99
      2213         6.4260         159.33         160.74          12.69
      2214         6.4280         149.12         154.06          12.29
      2215         6.4300         146.63         149.21          12.17
      2216         6.4320         149.97         145.57          12.22
      2217         6.4340         136.29         142.76          11.67
      2218         6.4360         144.79         140.55          12.12
      2219         6.4380         142.64         138.77          12.02
      2220         6.4400         147.55         137.32          12.12
      2221         6.4420         134.93         136.11          11.60
      2222         6.4440         130.83         135.10          11.51
      2223         6.4460         124.84         134.24          11.25
      2224         6.4480         132.60         133.50          11.62
      2225         6.4500         132.64         132.85          11.58
      2226         6.4520         123.26         132.29          11.12
      2227         6.4540         119.35         131.79          10.98
      2228         6.4560         141.54         131.35          11.93
      2229         6.4580         128.22         130.95          11.37
      2230         6.4600         123.87         130.59          11.17
      2231         6.4620         120.19         130.26          10.98
      2232         6.4640         140.48         129.96          11.88
      2233         6.4660         127.82         129.69          11.30
      2234         6.4680         111.16         129.44          10.56
      2235         6.4700         113.17         129.20          10.69
      2236         6.4720         122.67         128.98          11.09
      2237         6.4740         114.77         128.77          10.75
      2238         6.4760         114.37         128.58          10.76
      2239         6.4780         124.70         128.40          11.23
      2240         6.4800         139.92         128.22          11.86
      2241         6.4820         118.32         128.06          10.91
      2242         6.4840         108.62         127.90          10.51
      2243         6.4860         118.32         126.31          10.95
      2244         6.4880         120.83         126.24          11.05
      2245         6.4900         129.47         126.17          11.50
      2246         6.4920         132.24         126.10          11.54
      2247         6.4940         126.42         127.94          11.28
      2248         6.4960         126.96         127.98          11.37
      2249         6.4980         134.41         128.03          11.65
      2250         6.5000         122.69         128.08          11.15
      2251         6.5020         131.74         128.15          11.52
      2252         6.5040         116.73         128.23          10.83
      2253         6.5060         133.82         128.32          11.60
      2254         6.5080         130.97         128.43          11.53
      2255         6.5100         125.22         128.56          11.26
      2256         6.5120         117.53         128.71          10.88
      2257         6.5140         132.72         128.89          11.60
      2258         6.5160         133.82         129.09          11.66
      2259         6.5180         133.22         129.32          11.61
      2260         6.5200         121.46         129.59          11.11
      2261         6.5220         120.36         129.91          11.02
      2262         6.5240         125.86         130.27          11.20
      2263         6.5260         137.91         130.70          11.78
      2264         6.5280         122.17         131.20          11.10
      2265         6.5300         119.30         131.79          11.01
      2266         6.5320         120.10         132.49          11.02
      2267         6.5340         132.56         133.31          11.57
      2268         6.5360         131.64         134.30          11.56
      2269         6.5380         141.86         135.49          11.99
      2270         6.5400         143.63         136.94          12.06
      2271         6.5420         146.01         138.73          12.17
      2272         6.5440         139.58         140.95          11.93
      2273         6.5460         161.30         143.76          12.75
      2274         6.5480         179.09         147.38          13.48
      2275         6.5500         175.39         152.12          13.36
      2276         6.5520         160.79         158.49          12.80
      2277         6.5540         168.18         167.38          13.07
      2278         6.5560         174.77         180.52          13.30
      2279         6.5580         200.35         201.81          14.22
      2280         6.5600         225.42         239.52          15.12
      2281         6.5620         308.18         308.02          17.61
      2282         6.5640         419.87         424.30          20.46
      2283         6.5660         619.60         592.01          25.00
      2284         6.5680         707.22         755.69          26.73
      2285         6.5700         700.20         771.19          26.60
      2286         6.5720         571.16         619.89          24.00
      2287         6.5740         438.43         446.61          21.01
      2288         6.5760         334.60         321.87          18.36
      2289         6.5780         263.75         246.99          16.30
      2290         6.5800         210.88         205.53          14.59
      2291         6.5820         189.22         182.28          13.81
      2292         6.5840         157.32         168.10          12.61
      2293         6.5860         163.81         158.59          12.87
      2294         6.5880         141.35         151.77          11.94
      2295         6.5900         155.52         146.69          12.51
      2296         6.5920         139.90         142.80          11.83
      2297         6.5940         156.12         139.76          12.53
      2298         6.5960         132.44         137.33          11.52
      2299         6.5980         132.20         135.36          11.56
      2300         6.6000         135.99         133.73          11.72
      2301         6.6020         139.28         132.38          11.87
      2302         6.6040         132.23         131.23          11.59
      2303         6.6060         116.03         130.26          10.84
      2304         6.6080         110.15         129.42          10.53
      2305         6.6100         113.27         128.69          10.72
      2306         6.6120         127.10         129.51          11.36
      2307         6.6140         124.94         129.03          11.27
      2308         6.6160         120.32         128.61          11.05
      2309         6.6180         132.11         128.26          11.53
      2310         6.6200         122.15         127.96          11.10
      2311         6.6220         128.15         127.70          11.38
      2312         6.6240         137.26         127.49          11.77
      2313         6.6260         147.23         127.32          12.18
      2314         6.6280         121.67         127.19          11.08
      2315         6.6300         134.05         127.10          11.67
      2316         6.6320         134.01         127.04          11.65
      2317         6.6340         138.99         127.02          11.87
      2318         6.6360         129.27         127.04          11.46
      2319         6.6380         121.20         127.10          11.09
      2320         6.6400         103.96         127.20          10.28
      2321         6.6420         108.43         127.36          10.48
      2322         6.6440         121.22         127.56          11.06
      2323         6.6460         125.72         126.00          11.22
      2324         6.6480         115.24         126.43          10.75
      2325         6.6500         111.60         126.94          10.61
      2326         6.6520         113.97         127.55          10.69
      2327         6.6540         131.89         128.28          11.55
      2328         6.6560         130.52         129.16          11.49
      2329         6.6580         144.17         130.23          12.05
      2330         6.6600         142.44         131.54          12.01
      2331         6.6620         137.96         133.18          11.85
      2332         6.6640         146.17         135.24          12.18
      2333         6.6660         147.55         137.88          12.24
      2334         6.6680         158.68         141.32          12.72
      2335         6.6700         168.82         145.93          13.15
      2336         6.6720         184.35         152.30          13.70
      2337         6.6740         207.40         161.60          14.52
      2338         6.6760         215.71         176.38          14.81
      2339         6.6780         271.73         202.06          16.68
      2340         6.6800         324.35         248.39          18.24
      2341         6.6820         395.60         327.85          20.11
      2342         6.6840         452.92         446.36          21.58
      2343         6.6860         517.35         575.23          22.97
      2344         6.6880         494.14         615.88          22.21
      2345         6.6900         411.85         520.96          20.18
      2346         6.6920         336.35         388.74          18.23
      2347         6.6940         262.93         287.15          16.14
      2348         6.6960         200.82         223.88          14.14
      2349         6.6980         169.18         188.14          13.03
      2350         6.7000         149.30         168.17          12.26
      2351         6.7020         146.02         156.19          12.10
      2352         6.7040         143.05         148.30          11.96
      2353         6.7060         132.37         142.71          11.49
      2354         6.7080         122.91         138.57          11.15
      2355         6.7100         135.61         135.41          11.68
      2356         6.7120         139.13         132.95          11.77
      2357         6.7140         127.69         130.99          11.25
      2358         6.7160         132.12         129.40          11.55
      2359         6.7180         119.91         128.09          10.98
      2360         6.7200         110.09         127.01          10.51
      2361         6.7220         125.00         126.09          11.21
      2362         6.7240         130.09         125.31          11.44
      2363         6.7260         112.98         124.64          10.66
      2364         6.7280         113.28         124.06          10.73
      2365         6.7300         116.48         123.55          10.84
      2366         6.7320         132.32         123.10          11.56
      2367         6.7340         115.14         122.69          10.78
      2368         6.7360         124.36         122.34          11.22
      2369         6.7380         116.97         122.01          10.86
      2370         6.7400         113.95         121.72          10.73
      2371         6.7420         101.33         121.45          10.10
      2372         6.7440         118.72         121.21          10.88
      2373         6.7460         116.01         120.99          10.80
      2374         6.7480         112.60         120.78          10.62
      2375         6.7500         117.66         120.59          10.88
      2376         6.7520         112.50         120.41          10.63
      2377         6.7540         108.97         120.24          10.50
      2378         6.7560         113.20         120.08          10.66
      2379         6.7580         111.77         119.93          10.63
      2380         6.7600         101.25         119.79          10.13
      2381         6.7620          99.07         119.66          10.06
      2382         6.7640         112.74         118.10          10.65
      2383         6.7660         106.45         118.06          10.34
      2384         6.7680         100.75         118.01          10.09
      2385         6.7700         112.50         117.96          10.69
      2386         6.7720         101.15         117.91          10.16
      2387         6.7740         106.89         117.87          10.37
      2388         6.7760         111.53         117.82          10.58
      2389         6.7780         109.00         117.77          10.50
      2390         6.7800         110.53         117.72          10.62
      2391         6.7820         102.36         117.68          10.18
      2392         6.7840         100.11         117.63          10.04
      2393         6.7860         111.89         117.58          10.65
      2394         6.7880         104.43         117.54          10.27
      2395         6.7900         100.97         117.49          10.10
      2396         6.7920          98.88         117.44          10.03
      2397         6.7940         102.21         118.13          10.16
      2398         6.7960         119.85         118.12          10.96
      2399         6.7980         114.26         118.12          10.71
      2400         6.8000         113.84         118.12          10.70
      2401         6.8020         129.09         118.13          11.43
      2402         6.8040         111.70         118.14          10.63
      2403         6.8060         112.87         118.15          10.65
      2404         6.8080          99.71         118.18          10.01
      2405         6.8100         102.92         118.21          10.15
      2406         6.8120         120.35         118.24          10.98
      2407         6.8140         117.16         118.29          10.84
      2408         6.8160         110.79         118.34          10.56
      2409         6.8180         101.47         118.41          10.13
      2410         6.8200         115.10         118.50          10.78
      2411         6.8220         105.47         118.59          10.32
      2412         6.8240         104.58         118.71          10.24
      2413         6.8260         120.69         118.85          11.02
      2414         6.8280         122.67         119.02          11.12
      2415         6.8300         105.63         119.22          10.30
      2416         6.8320         111.23         119.46          10.57
      2417         6.8340         114.24         119.74          10.76
      2418         6.8360         110.29         120.08          10.56
      2419         6.8380         116.58         120.50          10.86
      2420         6.8400         140.86         121.02          11.91
      2421         6.8420         122.34         121.65          11.11
      2422         6.8440         129.29         122.44          11.44
      2423         6.8460         124.93         123.43          11.23
      2424         6.8480         121.11         124.72          11.07
      2425         6.8500         119.71         126.39          10.98
      2426         6.8520         131.93         128.63          11.53
      2427         6.8540         123.44         131.73          11.15
      2428         6.8560         136.49         136.24          11.75
      2429         6.8580         153.40         143.38          12.48
      2430         6.8600         169.63         155.68          13.02
      2431         6.8620         163.46         177.58          12.81
      2432         6.8640         192.92         214.75          14.01
      2433         6.8660         230.48         270.08          15.27
      2434         6.8680         284.76         331.23          16.99
      2435         6.8700         341.99         353.82          18.55
      2436         6.8720         312.60         312.20          17.70
      2437         6.8740         272.92         249.65          16.53
      2438         6.8760         214.29         200.10          14.67
      2439         6.8780         181.46         168.52          13.53
      2440         6.8800         157.17         150.34          12.59
      2441         6.8820         150.04         140.07          12.29
      2442         6.8840         137.70         133.92          11.76
      2443         6.8860         133.04         129.88          11.59
      2444         6.8880         148.97         127.03          12.26
      2445         6.8900         161.61         124.92          12.81
      2446         6.8920         155.43         123.31          12.54
      2447         6.8940         151.82         122.04          12.40
      2448         6.8960         157.03         121.04          12.60
      2449         6.8980         165.36         120.22          12.89
      2450         6.9000         172.48         119.55          13.15
      2451         6.9020         184.04         118.99          13.60
      2452         6.9040         171.40         118.51          13.10
      2453         6.9060         141.54         118.10          11.91
      2454         6.9080         130.29         117.75          11.48
      2455         6.9100         121.31         117.44          11.07
      2456         6.9120         116.27         117.16          10.84
      2457         6.9140         119.19         116.92          10.98
      2458         6.9160         120.25         116.70          11.01
      2459         6.9180         118.40         116.51          10.89
      2460         6.9200         118.04         116.33          10.86
      2461         6.9220         121.95         116.17          11.10
      2462         6.9240         108.10         116.02          10.44
      2463         6.9260         129.69         115.88          11.44
      2464         6.9280         110.88         115.75          10.56
      2465         6.9300         112.86         115.63          10.62
      2466         6.9320         107.40         115.52          10.38
      2467         6.9340         100.36         115.41          10.06
      2468         6.9360         106.71         115.31          10.35
      2469         6.9380         109.53         115.22          10.50
      2470         6.9400         111.53         115.13          10.62
      2471         6.9420         119.89         115.04          11.02
      2472         6.9440         116.97         114.96          10.87
      2473         6.9460         117.98         114.88          10.88
      2474         6.9480         110.43         114.12          10.53
      2475         6.9500          94.73         114.08           9.76
      2476         6.9520         104.43         114.04          10.24
      2477         6.9540         107.02         114.00          10.39
      2478         6.9560         102.67         113.96          10.18
      2479         6.9580         116.86         113.92          10.84
      2480         6.9600         100.02         113.88          10.00
      2481         6.9620         113.55         113.84          10.63
      2482         6.9640         101.58         113.80          10.07
      2483         6.9660         103.26         113.76          10.19
      2484         6.9680         102.33         113.72          10.09
      2485         6.9700         101.61         113.68          10.08
      2486         6.9720         108.31         113.65          10.44
      2487         6.9740         105.53         113.61          10.33
      2488         6.9760         116.67         113.57          10.83
      2489         6.9780         114.81         113.53          10.76
      2490         6.9800         110.71         113.49          10.55
      2491         6.9820         106.90         113.45          10.38
      2492         6.9840         117.58         113.41          10.87
      2493         6.9860         125.65         113.37          11.23
      2494         6.9880         116.07         113.33          10.81
      2495         6.9900         105.35         113.29          10.29
      2496         6.9920          96.93         113.25           9.89
      2497         6.9940         100.17         113.21          10.09
      2498         6.9960          92.83         113.17           9.72
      2499         6.9980          94.77         113.13           9.82
      2500         7.0000         107.17         113.09          10.38
      2501         7.0020         110.27         113.06          10.57
      2502         7.0040         115.60         113.01          10.82
      2503         7.0060         119.71         112.98          11.00
      2504         7.0080         115.96         112.94          10.82
      2505         7.0100         101.04         112.90          10.06
      2506         7.0120          88.31         112.86           9.40
      2507         7.0140         106.12         112.82          10.31
      2508         7.0160         116.55         112.78          10.81
      2509         7.0180         103.31         112.74          10.17
      2510         7.0200         106.16         112.70          10.30
      2511         7.0220         105.63         112.66          10.28
      2512         7.0240         112.50         112.62          10.64
      2513         7.0260         114.67         112.58          10.73
      2514         7.0280         102.42         112.54          10.11
      2515         7.0300          99.30         112.50          10.00
      2516         7.0320         102.74         112.47          10.19
      2517         7.0340         108.64         112.43          10.47
      2518         7.0360         109.02         112.39          10.50
      2519         7.0380         106.13         112.35          10.38
      2520         7.0400         104.64         112.31          10.26
      2521         7.0420         117.66         112.27          10.91
      2522         7.0440         109.26         113.87          10.49
      2523         7.0460         111.37         113.91          10.56
      2524         7.0480         108.40         113.97          10.45
      2525         7.0500         109.13         114.03          10.47
      2526         7.0520         102.41         114.10          10.13
      2527         7.0540          99.41         114.17           9.97
      2528         7.0560          95.80         114.26           9.81
      2529         7.0580         101.90         114.36          10.12
      2530         7.0600          99.77         114.48          10.00
      2531         7.0620         107.59         114.61          10.34
      2532         7.0640         110.13         114.75          10.50
      2533         7.0660         102.07         114.92          10.14
      2534         7.0680         106.87         115.11          10.36
      2535         7.0700         110.29         115.32          10.54
      2536         7.0720         116.25         115.57          10.85
      2537         7.0740         115.01         115.85          10.74
      2538         7.0760          99.14         116.17           9.97
      2539         7.0780         101.98         116.54          10.16
      2540         7.0800         103.46         116.96          10.25
      2541         7.0820         113.57         117.45          10.69
      2542         7.0840         123.90         118.03          11.21
      2543         7.0860         126.78         118.70          11.35
      2544         7.0880         136.96         119.49          11.73
      2545         7.0900         128.46         120.44          11.36
      2546         7.0920         134.06         121.57          11.64
      2547         7.0940         122.69         122.94          11.12
      2548         7.0960         127.31         124.62          11.38
      2549         7.0980         127.44         126.71          11.35
      2550         7.1000         131.76         129.33          11.49
      2551         7.1020         147.93         132.69          12.18
      2552         7.1040         139.55         137.08          11.86
      2553         7.1060         128.83         142.95          11.37
      2554         7.1080         151.39         151.11          12.27
      2555         7.1100         186.08         163.16          13.70
      2556         7.1120         205.31         182.46          14.40
      2557         7.1140         215.14         215.65          14.75
      2558         7.1160         254.09         273.45          15.96
      2559         7.1180         345.87         367.80          18.63
      2560         7.1200         474.36         500.69          21.78
      2561         7.1220         614.85         631.55          24.89
      2562         7.1240         697.05         654.05          26.56
      2563         7.1260         571.13         544.42          23.88
      2564         7.1280         392.05         404.67          19.81
      2565         7.1300         309.44         298.31          17.64
      2566         7.1320         249.09         231.00          15.84
      2567         7.1340         215.59         191.93          14.70
      2568         7.1360         194.42         169.48          13.95
      2569         7.1380         175.58         155.84          13.33
      2570         7.1400         152.80         146.82          12.45
      2571         7.1420         153.99         140.46          12.47
      2572         7.1440         153.54         135.80          12.48
      2573         7.1460         146.32         132.28          12.16
      2574         7.1480         131.18         129.60          11.53
      2575         7.1500         142.99         127.52          12.00
      2576         7.1520         146.66         125.91          12.08
      2577         7.1540         139.35         124.66          11.79
      2578         7.1560         135.82         123.71          11.69
      2579         7.1580         141.70         123.00          11.91
      2580         7.1600         141.34         122.49          11.94
      2581         7.1620         144.86         122.18          12.09
      2582         7.1640         147.76         122.03          12.23
      2583         7.1660         145.49         122.06          12.10
      2584         7.1680         158.77         122.25          12.67
      2585         7.1700         174.75         122.63          13.27
      2586         7.1720         190.43         123.21          13.90
      2587         7.1740         177.14         124.03          13.39
      2588         7.1760         194.04         125.11          13.98
      2589         7.1780         218.63         126.54          14.88
      2590         7.1800         242.95         128.40          15.69
      2591         7.1820         254.22         130.82          16.01
      2592         7.1840         259.31         134.00          16.22
      2593         7.1860         265.44         138.21          16.34
      2594         7.1880         250.77         143.90          15.90
      2595         7.1900         234.93         151.86          15.43
      2596         7.1920         237.96         163.61          15.48
      2597         7.1940         239.78         182.37          15.54
      2598         7.1960         256.40         214.47          16.13
      2599         7.1980         273.18         270.21          16.64
      2600         7.2000         365.73         361.51          19.22
      2601         7.2020         459.37         491.97          21.62
      2602         7.2040         560.61         625.04          23.93
      2603         7.2060         609.66         661.41          24.81
      2604         7.2080         563.52         558.96          23.72
      2605         7.2100         459.49         417.71          21.33
      2606         7.2120         337.37         306.66          18.25
      2607         7.2140         240.27         235.08          15.42
      2608         7.2160         184.90         193.02          13.52
      2609         7.2180         181.33         168.73          13.38
      2610         7.2200         180.67         153.98          13.48
      2611         7.2220         167.07         144.24          13.00
      2612         7.2240         151.71         137.36          12.36
      2613         7.2260         149.31         132.26          12.18
      2614         7.2280         130.03         128.37          11.39
      2615         7.2300         131.16         125.33          11.48
      2616         7.2320         145.36         122.91          12.08
      2617         7.2340         142.04         120.95          11.92
      2618         7.2360         128.81         119.35          11.38
      2619         7.2380         130.25         118.01          11.45
      2620         7.2400         147.93         116.88          12.26
      2621         7.2420         152.72         115.93          12.44
      2622         7.2440         142.38         115.10          11.98
      2623         7.2460         138.96         114.39          11.81
      2624         7.2480         143.72         113.77          12.05
      2625         7.2500         156.06         113.22          12.53
      2626         7.2520         155.90         112.74          12.50
      2627         7.2540         150.95         112.30          12.34
      2628         7.2560         158.52         111.92          12.64
      2629         7.2580         135.02         111.56          11.60
      2630         7.2600         134.46         111.25          11.54
      2631         7.2620         133.88         110.96          11.63
      2632         7.2640         133.49         110.69          11.62
      2633         7.2660         136.09         110.44          11.74
      2634         7.2680         112.15         110.22          10.62
      2635         7.2700         111.76         110.01          10.56
      2636         7.2720         116.27         109.81          10.81
      2637         7.2740         117.80         109.63          10.90
      2638         7.2760         109.38         109.46          10.50
      2639         7.2780         111.93         109.29          10.63
      2640         7.2800         119.97         109.14          10.99
      2641         7.2820         120.18         109.00          10.98
      2642         7.2840         103.60         108.86          10.20
      2643         7.2860         105.59         107.10          10.29
      2644         7.2880         111.21         107.05          10.60
      2645         7.2900         119.56         107.00          10.95
      2646         7.2920         104.33         106.95          10.23
      2647         7.2940         110.86         106.91          10.56
      2648         7.2960         111.28         106.86          10.55
      2649         7.2980         118.15         106.81          10.93
      2650         7.3000         112.60         106.76          10.68
      2651         7.3020         100.93         106.71          10.11
      2652         7.3040          96.17         106.67           9.88
      2653         7.3060          96.45         106.62           9.91
      2654         7.3080         105.59         106.57          10.34
      2655         7.3100          98.15         106.52           9.97
      2656         7.3120         104.37         106.47          10.23
      2657         7.3140         104.58         106.42          10.22
      2658         7.3160          97.50         106.37           9.86
      2659         7.3180         101.13         106.32          10.12
      2660         7.3200          97.69         106.27           9.91
      2661         7.3220          92.84         106.22           9.68
      2662         7.3240          96.65         106.17           9.86
      2663         7.3260         111.11         106.12          10.61
      2664         7.3280         123.32         106.07          11.14
      2665         7.3300         107.05         106.02          10.38
      2666         7.3320         111.47         105.97          10.62
      2667         7.3340         109.60         105.92          10.50
      2668         7.3360         107.26         105.87          10.38
      2669         7.3380         103.54         105.82          10.23
      2670         7.3400         102.90         105.77          10.21
      2671         7.3420          97.80         105.72           9.94
      2672         7.3440          97.82         105.67           9.96
      2673         7.3460          92.98         105.62           9.73
      2674         7.3480          96.57         105.57           9.90
      2675         7.3500          96.94         105.52           9.93
      2676         7.3520          95.84         105.46           9.88
      2677         7.3540          98.44         105.41           9.97
      2678         7.3560         108.67         105.36          10.48
      2679         7.3580          99.76         105.31          10.03
      2680         7.3600         104.79         105.26          10.24
      2681         7.3620         109.76         105.21          10.58
      2682         7.3640         106.93         105.15          10.39
      2683         7.3660          92.64         105.10           9.66
      2684         7.3680          91.17         105.05           9.59
      2685         7.3700          99.22         105.00          10.04
      2686         7.3720          99.39         104.94          10.05
      2687         7.3740          90.22         104.89           9.55
      2688         7.3760          99.50         104.84          10.00
      2689         7.3780         102.85         104.79          10.23
      2690         7.3800          96.79         104.73           9.90
      2691         7.3820          98.64         104.68           9.92
      2692         7.3840         103.88         104.63          10.26
      2693         7.3860          99.15         104.57          10.03
      2694         7.3880         108.29         104.52          10.46
      2695         7.3900         117.23         104.47          10.88
      2696         7.3920          98.40         104.41           9.94
      2697         7.3940          92.84         104.36           9.66
      2698         7.3960          87.50         104.30           9.36
      2699         7.3980          92.44         104.25           9.58
      2700         7.4000          98.21         104.19           9.93
      2701         7.4020          99.37         104.14           9.98
      2702         7.4040         102.15         104.09          10.10
      2703         7.4060         101.97         104.03          10.14
      2704         7.4080         100.27         103.98          10.06
      2705         7.4100         106.74         103.92          10.41
      2706         7.4120          97.11         103.87           9.92
      2707         7.4140          94.43         103.81           9.77
      2708         7.4160          83.67         103.75           9.20
      2709         7.4180          99.14         103.70           9.94
      2710         7.4200          98.41         103.64           9.93
      2711         7.4220          95.51         103.59           9.77
      2712         7.4240         103.21         103.53          10.12
      2713         7.4260          97.43         103.48           9.88
      2714         7.4280          91.75         103.42           9.62
      2715         7.4300          97.26         103.36           9.94
      2716         7.4320          91.89         103.31           9.66
      2717         7.4340         100.42         103.25          10.05
      2718         7.4360          95.35         103.19           9.80
      2719         7.4380          86.28         103.14           9.32
      2720         7.4400         101.65         103.08          10.07
      2721         7.4420          98.79         103.02           9.97
      2722         7.4440          88.96         102.97           9.50
      2723         7.4460          90.45         102.91           9.54
      2724         7.4480          91.33         102.85           9.64
      2725         7.4500          95.64         102.79           9.80
      2726         7.4520          95.07         102.74           9.79
      2727         7.4540          97.18         102.68           9.85
      2728         7.4560          88.59         102.62           9.39
      2729         7.4580          88.60         102.56           9.48
      2730         7.4600          93.49         102.50           9.70
      2731         7.4620          96.51         102.44           9.81
      2732         7.4640          92.99         102.39           9.68
      2733         7.4660          99.02         102.33           9.90
      2734         7.4680          83.83         102.27           9.11
      2735         7.4700          96.19         102.21           9.81
      2736         7.4720         102.93         102.15          10.19
      2737         7.4740         109.01         102.09          10.48
      2738         7.4760         107.90         102.03          10.42
      2739         7.4780          98.01         101.97           9.93
      2740         7.4800         104.52         101.91          10.24
      2741         7.4820          99.15         101.86          10.01
      2742         7.4840          97.34         101.79           9.93
      2743         7.4860          92.12         101.74           9.63
      2744         7.4880         102.97         101.68          10.14
      2745         7.4900          92.82         101.61           9.64
      2746         7.4920          91.79         101.56           9.60
      2747         7.4940         102.96         101.49          10.20
      2748         7.4960          98.54         101.43           9.95
      2749         7.4980         102.40         101.37          10.11
      2750         7.5000         113.32         101.31          10.64
      2751         7.5020         111.79         101.25          10.56
      2752         7.5040         105.10         101.19          10.27
      2753         7.5060         103.16         101.13          10.19
      2754         7.5080         105.18         101.07          10.30
      2755         7.5100          92.82         101.01           9.68
      2756         7.5120         103.18         108.47          10.18
      2757         7.5140         103.01         108.79          10.19
      2758         7.5160         116.97         109.14          10.87
      2759         7.5180         119.09         109.52          10.93
      2760         7.5200         104.11         109.94          10.18
      2761         7.5220         117.28         110.40          10.79
      2762         7.5240         113.25         110.90          10.66
      2763         7.5260         110.82         111.45          10.57
      2764         7.5280         112.42         112.06          10.66
      2765         7.5300         117.66         112.74          10.88
      2766         7.5320         123.04         113.48          11.08
      2767         7.5340         126.83         114.31          11.29
      2768         7.5360         115.82         115.23          10.80
      2769         7.5380         123.84         116.26          11.12
      2770         7.5400         121.16         117.40          11.01
      2771         7.5420         136.23         118.70          11.67
      2772         7.5440         159.40         120.15          12.65
      2773         7.5460         160.63         121.80          12.71
      2774         7.5480         164.08         123.67          12.85
      2775         7.5500         151.84         125.81          12.37
      2776         7.5520         146.76         128.27          12.18
      2777         7.5540         166.37         131.11          12.95
      2778         7.5560         192.51         134.42          13.95
      2779         7.5580         206.37         138.29          14.45
      2780         7.5600         206.28         142.86          14.43
      2781         7.5620         225.89         148.30          15.09
      2782         7.5640         246.83         154.86          15.79
      2783         7.5660         257.04         162.84          16.11
      2784         7.5680         275.79         172.66          16.73
      2785         7.5700         274.44         184.96          16.67
      2786         7.5720         294.42         200.57          17.21
      2787         7.5740         329.83         220.83          18.25
      2788         7.5760         376.47         247.75          19.43
      2789         7.5780         402.74         284.84          20.12
      2790         7.5800         447.25         338.90          21.22
      2791         7.5820         520.81         423.74          22.93
      2792         7.5840         602.14         565.40          24.73
      2793         7.5860         760.61         804.77          27.79
      2794         7.5880        1050.76        1188.76          32.62
      2795         7.5900        1653.63        1733.29          40.83
      2796         7.5920        2481.54        2309.64          50.16
      2797         7.5940        2878.68        2517.21          53.73
      2798         7.5960        2500.67        2136.65          49.75
      2799         7.5980        1612.60        1539.72          39.62
      2800         7.6000         899.58        1044.15          29.72
      2801         7.6020         624.31         711.86          24.87
      2802         7.6040         422.49         519.65          20.43
      2803         7.6060         326.77         400.86          18.07
      2804         7.6080         278.32         328.68          16.69
      2805         7.6100         252.23         281.69          15.85
      2806         7.6120         218.61         248.97          14.73
      2807         7.6140         197.13         225.09          14.04
      2808         7.6160         180.08         207.14          13.44
      2809         7.6180         175.53         193.40          13.27
      2810         7.6200         167.79         182.74          13.03
      2811         7.6220         145.82         174.41          12.12
      2812         7.6240         143.90         167.86          11.99
      2813         7.6260         147.29         162.73          12.18
      2814         7.6280         154.18         158.74          12.48
      2815         7.6300         149.22         155.70          12.28
      2816         7.6320         144.67         153.47          12.05
      2817         7.6340         136.32         151.95          11.70
      2818         7.6360         130.21         151.08          11.47
      2819         7.6380         129.71         150.81          11.46
      2820         7.6400         133.11         151.14          11.62
      2821         7.6420         158.15         152.05          12.67
      2822         7.6440         168.09         153.59          13.07
      2823         7.6460         165.18         155.80          12.94
      2824         7.6480         152.78         158.75          12.43
      2825         7.6500         167.39         162.55          13.03
      2826         7.6520         175.70         167.35          13.30
      2827         7.6540         184.05         173.35          13.61
      2828         7.6560         178.28         180.83          13.39
      2829         7.6580         186.83         190.16          13.68
      2830         7.6600         223.20         201.86          15.03
      2831         7.6620         224.86         216.66          15.03
      2832         7.6640         256.93         235.59          16.08
      2833         7.6660         278.77         260.20          16.78
      2834         7.6680         322.83         292.89          18.08
      2835         7.6700         335.55         337.65          18.45
      2836         7.6720         417.06         402.00          20.55
      2837         7.6740         511.67         501.14          22.82
      2838         7.6760         650.32         664.16          25.66
      2839         7.6780         796.59         932.30          28.49
      2840         7.6800        1170.09        1380.40          34.34
      2841         7.6820        1879.92        2039.85          43.71
      2842         7.6840        2935.57        2815.28          54.66
      2843         7.6860        3610.15        3273.23          60.37
      2844         7.6880        3331.45        2962.62          57.40
      2845         7.6900        2231.62        2205.68          46.64
      2846         7.6920        1316.90        1504.51          35.83
      2847         7.6940         823.40        1011.90          28.53
      2848         7.6960         602.97         704.07          24.48
      2849         7.6980         443.98         521.07          21.00
      2850         7.7000         351.74         410.67          18.73
      2851         7.7020         308.91         339.88          17.62
      2852         7.7040         285.80         291.12          16.95
      2853         7.7060         242.78         255.62          15.57
      2854         7.7080         218.44         228.81          14.78
      2855         7.7100         185.80         208.07          13.65
      2856         7.7120         177.16         191.70          13.34
      2857         7.7140         167.84         178.56          12.99
      2858         7.7160         167.84         167.87          12.99
      2859         7.7180         147.34         159.04          12.17
      2860         7.7200         128.18         151.67          11.38
      2861         7.7220         133.74         145.46          11.61
      2862         7.7240         133.32         140.17          11.56
      2863         7.7260         141.53         135.63          11.97
      2864         7.7280         130.14         131.71          11.42
      2865         7.7300         115.04         128.29          10.73
      2866         7.7320         114.55         125.29          10.76
      2867         7.7340         116.75         122.64          10.86
      2868         7.7360         117.96         120.30          10.85
      2869         7.7380          98.88         118.21           9.92
      2870         7.7400         104.31         117.07          10.31
      2871         7.7420         105.01         115.43          10.31
      2872         7.7440         117.01         113.94          10.84
      2873         7.7460         109.21         112.61          10.50
      2874         7.7480          98.11         111.40           9.96
      2875         7.7500          99.00         110.30           9.98
      2876         7.7520         102.46         109.30          10.14
      2877         7.7540         105.78         108.39          10.35
      2878         7.7560          97.17         107.56           9.93
      2879         7.7580         104.65         106.81          10.26
      2880         7.7600          95.05         106.12           9.79
      2881         7.7620          92.03         105.49           9.67
      2882         7.7640         103.14         104.92          10.21
      2883         7.7660         115.07         104.41          10.77
      2884         7.7680         109.84         103.94          10.53
      2885         7.7700         105.96          93.96          10.33
      2886         7.7720          97.64          94.03           9.94
      2887         7.7740         104.67          94.11          10.25
      2888         7.7760         107.77          94.22          10.39
      2889         7.7780          96.26          94.36           9.82
      2890         7.7800          98.43          94.52           9.94
      2891         7.7820          95.01          94.72           9.78
      2892         7.7840         115.66          94.95          10.74
      2893         7.7860         102.79          95.24          10.14
      2894         7.7880          97.21          95.60           9.83
      2895         7.7900          92.21          96.03           9.57
      2896         7.7920          92.66          96.56           9.65
      2897         7.7940         105.31          97.21          10.29
      2898         7.7960         101.97          98.02          10.10
      2899         7.7980         112.87          99.05          10.70
      2900         7.8000         105.57         100.35          10.30
      2901         7.8020         100.04         102.05          10.04
      2902         7.8040         104.11         104.29          10.25
      2903         7.8060         104.35         107.33          10.26
      2904         7.8080         105.28         111.67          10.30
      2905         7.8100         117.58         118.23          10.90
      2906         7.8120         124.75         128.84          11.20
      2907         7.8140         126.19         146.64          11.22
      2908         7.8160         174.23         175.79          13.23
      2909         7.8180         190.28         219.77          13.83
      2910         7.8200         243.98         275.28          15.64
      2911         7.8220         296.25         318.13          17.28
      2912         7.8240         308.92         310.19          17.65
      2913         7.8260         258.15         259.76          16.07
      2914         7.8280         196.61         205.99          13.98
      2915         7.8300         150.08         166.02          12.23
      2916         7.8320         130.03         140.22          11.40
      2917         7.8340         118.70         125.08          10.92
      2918         7.8360         100.54         115.68          10.06
      2919         7.8380          90.41         109.74           9.56
      2920         7.8400         110.93         105.70          10.53
      2921         7.8420          97.39         102.79           9.88
      2922         7.8440          89.85         100.61           9.47
      2923         7.8460          91.27          98.92           9.47
      2924         7.8480         112.41          97.59          10.60
      2925         7.8500          99.17          96.52           9.96
      2926         7.8520          88.41          95.65           9.44
      2927         7.8540          84.99          94.94           9.23
      2928         7.8560          87.64          94.35           9.36
      2929         7.8580          88.29          93.85           9.38
      2930         7.8600          88.35          93.44           9.39
      2931         7.8620          83.14          93.09           9.18
      2932         7.8640          89.81          92.80           9.52
      2933         7.8660          93.65          92.56           9.77
      2934         7.8680          88.87          92.36           9.48
      2935         7.8700          85.53          92.20           9.28
      2936         7.8720          93.39          92.09           9.76
      2937         7.8740          87.35          92.01           9.38
      2938         7.8760          81.72          91.97           9.04
      2939         7.8780          94.32          91.97           9.78
      2940         7.8800          89.79          92.01           9.50
      2941         7.8820          75.68          92.11           8.72
      2942         7.8840          85.95          92.26           9.29
      2943         7.8860          90.16          92.48           9.53
      2944         7.8880          69.81          92.78           8.38
      2945         7.8900          76.41          93.19           8.73
      2946         7.8920          84.66          93.73           9.23
      2947         7.8940          96.06          94.45           9.81
      2948         7.8960         105.49          95.40          10.28
      2949         7.8980          86.02          96.67           9.27
      2950         7.9000          93.83          98.40           9.78
      2951         7.9020          91.38         100.85           9.61
      2952         7.9040          92.63         104.49           9.64
      2953         7.9060          97.80         110.25           9.89
      2954         7.9080         111.52         119.14          10.56
      2955         7.9100         124.59         135.07          11.22
      2956         7.9120         142.91         160.01          12.03
      2957         7.9140         165.11         194.36          12.93
      2958         7.9160         235.72         229.07          15.44
      2959         7.9180         279.15         239.58          16.81
      2960         7.9200         249.45         214.96          15.80
      2961         7.9220         203.72         178.06          14.22
      2962         7.9240         146.81         147.39          12.05
      2963         7.9260         120.59         126.52          10.96
      2964         7.9280         113.51         113.55          10.67
      2965         7.9300         106.79         105.72          10.37
      2966         7.9320         102.57         100.86          10.15
      2967         7.9340          99.82          97.64           9.98
      2968         7.9360         103.05          95.36          10.13
      2969         7.9380          97.11          93.65           9.90
      2970         7.9400          90.60          92.34           9.59
      2971         7.9420         100.90          91.30          10.10
      2972         7.9440          91.41          90.46           9.61
      2973         7.9460          84.82          89.77           9.24
      2974         7.9480          99.53          89.19          10.02
      2975         7.9500         109.58          88.70          10.48
      2976         7.9520          98.43          88.28           9.95
      2977         7.9540          90.05          87.91           9.53
      2978         7.9560          82.04          87.59           9.09
      2979         7.9580          76.99          87.30           8.78
      2980         7.9600          89.16          87.04           9.48
      2981         7.9620          96.71          86.80           9.87
      2982         7.9640          84.94          86.59           9.26
      2983         7.9660          80.30          86.39           9.02
      2984         7.9680          85.97          86.21           9.30
      2985         7.9700          82.85          86.03           9.12
      2986         7.9720          88.08          85.87           9.41
      2987         7.9740          95.11          85.72           9.77
      2988         7.9760          87.99          85.58           9.40
      2989         7.9780          75.90          85.44           8.75
      2990         7.9800          86.87          85.31           9.40
      2991         7.9820          94.57          85.19           9.76
      2992         7.9840          90.67          85.07           9.56
      2993         7.9860         100.70          84.95          10.04
      2994         7.9880          95.60          84.84           9.79
      2995         7.9900          91.82          84.73           9.59
      2996         7.9920          91.56          84.62           9.57
      2997         7.9940          93.23          84.52           9.70
      2998         7.9960          97.64          84.42           9.90
      2999         7.9980          87.29          84.32           9.36
      3000         8.0000         102.89          84.22          10.62
      3001         8.0020          89.30          84.13           9.89
      3002         8.0040          78.34          83.58           9.26
      3003         8.0060          82.27          83.51           9.50
      3004         8.0080          79.59          83.44           9.32
      3005         8.0100          78.48          83.36           9.26
      3006         8.0120          79.94          83.29           9.36
      3007         8.0140          91.17          83.22           9.99
      3008         8.0160          97.84          83.15          10.33
      3009         8.0180          79.17          83.08           9.30
      3010         8.0200          88.04          83.01           9.81
      3011         8.0220          75.17          82.94           9.06
      3012         8.0240          84.20          82.87           9.59
      3013         8.0260          81.65          82.80           9.43
      3014         8.0280          92.26          82.73          10.04
      3015         8.0300          73.64          82.66           8.97
      3016         8.0320          80.35          82.59           9.37
      3017         8.0340          81.96          82.51           9.48
      3018         8.0360          88.13          82.44           9.82
      3019         8.0380          69.88          82.37           8.76
      3020         8.0400          68.15          82.30           8.64
      3021         8.0420          71.12          82.23           8.82
      3022         8.0440          76.27          82.16           9.14
      3023         8.0460          76.03          82.09           9.12
      3024         8.0480          89.81          82.03           9.93
      3025         8.0500          79.45          81.96           9.32
      3026         8.0520          85.29          81.89           9.65
      3027         8.0540          97.23          81.82          10.31
      3028         8.0560          93.56          81.75          10.13
      3029         8.0580          85.01          81.68           9.65
      3030         8.0600          76.63          81.61           9.13
      3031         8.0620          91.61          81.54          10.04
      3032         8.0640          83.73          81.47           9.57
      3033         8.0660          82.67          81.40           9.51
      3034         8.0680          77.25          81.33           9.19
      3035         8.0700          88.39          81.26           9.83
      3036         8.0720          70.63          81.20           8.79
      3037         8.0740          80.85          81.13           9.42
      3038         8.0760          76.36          81.06           9.15
      3039         8.0780          68.22          80.99           8.64
      3040         8.0800          74.54          80.92           9.05
      3041         8.0820          76.96          80.85           9.20
      3042         8.0840          69.39          80.79           8.68
      3043         8.0860          89.31          80.72           9.88
      3044         8.0880          69.75          80.65           8.74
      3045         8.0900          67.80          80.58           8.62
      3046         8.0920          71.74          80.52           8.86
      3047         8.0940          70.67          80.45           8.80
      3048         8.0960          78.38          80.38           9.26
      3049         8.0980          81.60          80.31           9.45
      3050         8.1000          70.87          80.25           8.81
      3051         8.1020          72.05          80.18           8.87
      3052         8.1040          77.42          80.11           9.22
      3053         8.1060          66.62          80.05           8.54
      3054         8.1080          70.98          79.98           8.82
      3055         8.1100          65.95          79.91           8.50
      3056         8.1120          74.94          79.85           9.06
      3057         8.1140          77.43          79.78           9.21
      3058         8.1160          70.61          79.71           8.80
      3059         8.1180          82.40          79.65           9.51
      3060         8.1200          78.22          79.58           9.26
      3061         8.1220          71.76          79.52           8.86
      3062         8.1240          61.65          79.45           8.20
      3063         8.1260          77.83          79.38           9.24
      3064         8.1280          70.85          79.32           8.83
      3065         8.1300          61.96          79.25           8.22
      3066         8.1320          76.51          79.19           9.14
      3067         8.1340          85.88          79.12           9.70
      3068         8.1360          74.61          79.06           9.04
      3069         8.1380          79.82          78.99           9.36
      3070         8.1400          82.25          78.93           9.50
      3071         8.1420          82.06          78.86           9.49
      3072         8.1440          83.76          78.80           9.58
      3073         8.1460          84.78          78.74           9.64
      3074         8.1480          82.31          78.67           9.50
      3075         8.1500          79.13          78.61           9.32
      3076         8.1520          69.98          78.54           8.76
      3077         8.1540          69.26          78.48           8.72
      3078         8.1560          80.79          78.42           9.41
      3079         8.1580          77.14          78.35           9.18
      3080         8.1600          84.01          78.29           9.62
      3081         8.1620          67.81          78.23           8.61
      3082         8.1640          73.36          78.16           8.94
      3083         8.1660          79.69          78.10           9.29
      3084         8.1680          65.63          78.04           8.46
      3085         8.1700          93.66          77.97          10.15
      3086         8.1720          84.81          77.91           9.65
      3087         8.1740          75.97          77.85           9.13
      3088         8.1760          78.14          77.79           9.26
      3089         8.1780          79.16          77.72           9.32
      3090         8.1800          79.14          77.66           9.32
      3091         8.1820          70.17          77.60           8.77
      3092         8.1840          76.19          77.54           9.14
      3093         8.1860          81.01          77.48           9.42
      3094         8.1880          73.31          77.41           8.95
      3095         8.1900          71.22          77.35           8.83
      3096         8.1920          71.78          77.29           8.88
      3097         8.1940          77.93          77.23           9.24
      3098         8.1960          76.95          77.17           9.17
      3099         8.1980          70.64          77.11           8.79
      3100         8.2000          73.92          77.05           8.99
      3101         8.2020          67.43          76.99           8.58
      3102         8.2040          74.25          76.93           9.01
      3103         8.2060          84.28          76.87           9.61
      3104         8.2080          75.22          77.03           9.07
      3105         8.2100          83.60          76.98           9.58
      3106         8.2120          76.66          76.93           9.16
      3107         8.2140          83.17          76.88           9.55
      3108         8.2160          77.25          76.83           9.19
      3109         8.2180          59.51          76.79           8.06
      3110         8.2200          71.56          76.75           8.86
      3111         8.2220          69.46          76.70           8.72
      3112         8.2240          78.60          76.66           9.28
      3113         8.2260          80.76          76.62           9.40
      3114         8.2280          90.75          76.59           9.97
      3115         8.2300          78.82          76.55           9.29
      3116         8.2320          78.53          76.52           9.27
      3117         8.2340          82.96          76.49           9.54
      3118         8.2360          94.63          76.46          10.19
      3119         8.2380          84.68          76.44           9.63
      3120         8.2400          82.28          76.42           9.49
      3121         8.2420          71.73          76.41           8.84
      3122         8.2440          74.04          76.40           8.99
      3123         8.2460          59.01          76.39           8.01
      3124         8.2480          81.62          76.40           9.47
      3125         8.2500          68.27          76.41           8.65
      3126         8.2520          61.67          76.43           8.20
      3127         8.2540          71.75          76.47           8.85
      3128         8.2560          79.88          76.52           9.35
      3129         8.2580          73.87          76.59           8.98
      3130         8.2600          87.66          76.67           9.79
      3131         8.2620          69.57          76.79           8.69
      3132         8.2640          71.72          76.94           8.88
      3133         8.2660          71.73          77.14           8.86
      3134         8.2680          64.24          77.39           8.37
      3135         8.2700          74.98          77.72           9.05
      3136         8.2720          69.84          78.14           8.74
      3137         8.2740          81.30          78.71           9.45
      3138         8.2760          89.58          79.48           9.91
      3139         8.2780          97.64          80.85          10.34
      3140         8.2800          80.83          82.45           9.41
      3141         8.2820          76.37          84.92           9.14
      3142         8.2840          90.24          88.95           9.95
      3143         8.2860         102.83          95.50          10.61
      3144         8.2880         107.94         105.67          10.88
      3145         8.2900         118.57         119.82          11.36
      3146         8.2920         142.16         135.11          12.45
      3147         8.2940         182.18         142.27          14.14
      3148         8.2960         148.18         134.37          12.72
      3149         8.2980         108.55         118.91          10.91
      3150         8.3000         103.32         104.88          10.63
      3151         8.3020          85.07          94.86           9.66
      3152         8.3040          82.27          88.41           9.50
      3153         8.3060          85.13          84.44           9.65
      3154         8.3080          73.15          81.98           8.96
      3155         8.3100          82.80          80.37           9.52
      3156         8.3120          91.10          79.27           9.98
      3157         8.3140          72.14          78.47           8.88
      3158         8.3160          83.78          77.87           9.58
      3159         8.3180          77.14          77.42           9.20
      3160         8.3200          69.69          77.08           8.73
      3161         8.3220          64.64          76.83           8.40
      3162         8.3240          75.66          76.65           9.11
      3163         8.3260          72.87          76.53           8.93
      3164         8.3280          76.76          76.47           9.16
      3165         8.3300          78.67          76.46           9.27
      3166         8.3320          66.83          76.51           8.53
      3167         8.3340          82.50          76.61           9.50
      3168         8.3360          99.99          76.79          10.46
      3169         8.3380          81.53          77.05           9.44
      3170         8.3400          80.99          77.41           9.40
      3171         8.3420          94.26          77.90          10.15
      3172         8.3440          73.13          78.56           8.95
      3173         8.3460          86.03          79.47           9.71
      3174         8.3480          91.75          80.74          10.03
      3175         8.3500          88.43          82.57           9.85
      3176         8.3520          87.18          85.38           9.76
      3177         8.3540         103.72          89.88          10.66
      3178         8.3560         104.43          97.23          10.69
      3179         8.3580         102.39         108.90          10.60
      3180         8.3600         111.20         125.92          11.02
      3181         8.3620         144.09         146.71          12.56
      3182         8.3640         155.97         162.11          13.06
      3183         8.3660         152.59         158.94          12.91
      3184         8.3680         125.11         140.31          11.68
      3185         8.3700         106.96         120.00          10.83
      3186         8.3720         100.97         104.45          10.52
      3187         8.3740          90.52          94.07           9.95
      3188         8.3760          90.70          87.56           9.97
      3189         8.3780          84.47          83.53           9.61
      3190         8.3800          84.75          80.93           9.65
      3191         8.3820          91.98          78.94          10.05
      3192         8.3840          79.80          77.66           9.36
      3193         8.3860          75.60          76.69           9.11
      3194         8.3880          69.66          76.12           8.74
      3195         8.3900          75.26          75.53           9.09
      3196         8.3920          73.41          75.04           8.96
      3197         8.3940          74.14          74.65           9.03
      3198         8.3960          75.85          74.31           9.12
      3199         8.3980          79.87          74.03           9.36
      3200         8.4000          75.74          73.79           9.12
      3201         8.4020          72.79          73.59           8.93
      3202         8.4040          75.14          73.40           9.08
      3203         8.4060          72.21          73.25           8.88
      3204         8.4080          75.82          73.11           9.10
      3205         8.4100          83.36          72.99           9.56
      3206         8.4120          92.47          72.88          10.07
      3207         8.4140          87.08          75.34           9.77
      3208         8.4160          79.42          75.38           9.32
      3209         8.4180          87.88          75.43           9.82
      3210         8.4200          79.97          75.50           9.35
      3211         8.4220          75.49          75.59           9.05
      3212         8.4240          76.55          77.73           9.13
      3213         8.4260          80.70          77.96           9.39
      3214         8.4280          96.38          78.22          10.28
      3215         8.4300          85.94          78.51           9.69
      3216         8.4320          93.75          78.83          10.12
      3217         8.4340          85.11          79.19           9.65
      3218         8.4360          75.86          79.60           9.10
      3219         8.4380          93.75          80.05          10.15
      3220         8.4400          89.03          80.57           9.89
      3221         8.4420          91.57          81.14          10.01
      3222         8.4440          86.85          81.79           9.74
      3223         8.4460          98.53          82.53          10.39
      3224         8.4480          92.78          83.37          10.07
      3225         8.4500         104.49          84.34          10.70
      3226         8.4520          95.36          85.45          10.23
      3227         8.4540          84.89          86.46           9.65
      3228         8.4560         100.30          88.00          10.49
      3229         8.4580         105.82          89.82          10.78
      3230         8.4600         105.89          92.05          10.76
      3231         8.4620         131.41          94.84          12.00
      3232         8.4640         122.94          98.51          11.61
      3233         8.4660         129.31         103.60          11.90
      3234         8.4680         120.94         110.92          11.52
      3235         8.4700         127.36         121.50          11.81
      3236         8.4720         150.01         136.10          12.82
      3237         8.4740         186.04         153.74          14.31
      3238         8.4760         185.70         168.53          14.26
      3239         8.4780         178.43         172.04          13.97
      3240         8.4800         168.79         166.60          13.58
      3241         8.4820         149.45         161.70          12.78
      3242         8.4840         156.87         162.34          13.12
      3243         8.4860         188.22         171.82          14.37
      3244         8.4880         184.53         187.39          14.22
      3245         8.4900         205.85         213.43          15.01
      3246         8.4920         239.58         255.45          16.20
      3247         8.4940         275.45         323.01          17.34
      3248         8.4960         375.70         429.20          20.17
      3249         8.4980         584.53         586.15          25.23
      3250         8.5000         811.48         790.09          29.75
      3251         8.5020        1040.15         982.86          33.74
      3252         8.5040        1110.10        1052.10          34.93
      3253         8.5060         965.73         995.71          32.55
      3254         8.5080         961.77         937.00          32.51
      3255         8.5100        1021.60         931.97          33.50
      3256         8.5120        1038.62         918.38          33.76
      3257         8.5140         887.70         807.39          31.15
      3258         8.5160         626.59         631.09          26.12
      3259         8.5180         441.40         469.48          21.97
      3260         8.5200         319.63         351.04          18.70
      3261         8.5220         265.33         272.00          17.05
      3262         8.5240         227.84         221.25          15.80
      3263         8.5260         177.85         188.52          13.95
      3264         8.5280         168.03         166.61          13.55
      3265         8.5300         143.23         151.22          12.54
      3266         8.5320         147.23         139.95          12.70
      3267         8.5340         164.45         131.50          13.42
      3268         8.5360         128.05         125.11          11.83
      3269         8.5380         137.88         120.30          12.29
      3270         8.5400         119.51         116.75          11.46
      3271         8.5420         129.62         114.27          11.91
      3272         8.5440         130.63         112.73          11.96
      3273         8.5460         130.18         112.09          11.95
      3274         8.5480         125.11         112.35          11.72
      3275         8.5500         113.63         113.60          11.17
      3276         8.5520         129.71         115.99          11.93
      3277         8.5540         115.70         119.80          11.26
      3278         8.5560         126.13         125.50          11.73
      3279         8.5580         163.98         133.90          13.42
      3280         8.5600         148.13         146.54          12.73
      3281         8.5620         160.21         166.30          13.26
      3282         8.5640         203.21         198.31          14.95
      3283         8.5660         243.81         250.05          16.33
      3284         8.5680         349.91         331.04          19.62
      3285         8.5700         450.88         446.25          22.19
      3286         8.5720         688.55         580.45          27.44
      3287         8.5740         814.08         667.98          29.89
      3288         8.5760         709.84         631.70          27.82
      3289         8.5780         457.73         506.30          22.34
      3290         8.5800         323.73         377.01          18.79
      3291         8.5820         213.53         279.23          15.26
      3292         8.5840         177.99         213.89          13.97
      3293         8.5860         144.77         172.62          12.57
      3294         8.5880         129.92         146.76          11.94
      3295         8.5900         106.38         129.96          10.79
      3296         8.5920         111.48         118.41          11.02
      3297         8.5940         100.74         107.55          10.51
      3298         8.5960         101.64         102.38          10.56
      3299         8.5980          99.23          97.58          10.44
      3300         8.6000         110.27          93.79          11.00
      3301         8.6020         103.17          88.76          10.63
      3302         8.6040         100.29          86.37          10.49
      3303         8.6060          93.85          84.41          10.13
      3304         8.6080          87.93          82.79           9.81
      3305         8.6100         107.02          81.44          10.84
      3306         8.6120         100.50          80.31          10.49
      3307         8.6140          95.64          79.36          10.24
      3308         8.6160         100.64          78.55          10.50
      3309         8.6180         108.46          77.87          10.90
      3310         8.6200          97.54          77.29          10.30
      3311         8.6220          78.37          76.81           9.27
      3312         8.6240          78.78          76.94           9.29
      3313         8.6260          92.16          76.64          10.06
      3314         8.6280          85.76          76.40           9.70
      3315         8.6300          74.70          76.22           9.03
      3316         8.6320          72.64          76.11           8.93
      3317         8.6340          68.95          76.05           8.70
      3318         8.6360          68.92          76.06           8.69
      3319         8.6380          91.03          76.12           9.97
      3320         8.6400          91.48          76.25           9.99
      3321         8.6420          86.98          76.44           9.77
      3322         8.6440          91.28          76.71          10.01
      3323         8.6460          87.00          77.07           9.74
      3324         8.6480          81.43          77.52           9.45
      3325         8.6500          79.25          78.08           9.32
      3326         8.6520          79.94          78.78           9.35
      3327         8.6540          86.46          79.64           9.73
      3328         8.6560          93.03          80.70          10.10
      3329         8.6580          84.82          82.01           9.64
      3330         8.6600         104.73          83.64          10.73
      3331         8.6620          91.22          85.69           9.99
      3332         8.6640         101.60          88.30          10.57
      3333         8.6660         107.77          89.87          10.88
      3334         8.6680         107.64          94.42          10.85
      3335         8.6700         130.88         100.61          11.99
      3336         8.6720         136.20         109.50          12.22
      3337         8.6740         162.91         122.98          13.39
      3338         8.6760         185.22         144.29          14.26
      3339         8.6780         252.54         178.02          16.69
      3340         8.6800         274.27         229.10          17.37
      3341         8.6820         346.93         299.05          19.54
      3342         8.6840         380.96         374.24          20.46
      3343         8.6860         378.85         411.86          20.38
      3344         8.6880         331.88         378.04          19.05
      3345         8.6900         278.59         304.94          17.41
      3346         8.6920         213.53         236.29          15.22
      3347         8.6940         140.69         186.79          12.38
      3348         8.6960         139.35         155.36          12.36
      3349         8.6980         128.62         137.47          11.89
      3350         8.7000         125.49         129.21          11.74
      3351         8.7020         137.11         128.55          12.26
      3352         8.7040         112.88         135.44          11.12
      3353         8.7060         139.75         151.21          12.35
      3354         8.7080         171.22         177.14          13.67
      3355         8.7100         228.50         210.69          15.81
      3356         8.7120         256.94         237.70          16.76
      3357         8.7140         244.40         235.17          16.38
      3358         8.7160         200.56         203.83          14.82
      3359         8.7180         167.89         166.63          13.58
      3360         8.7200         133.78         136.83          12.11
      3361         8.7220         117.38         116.19          11.34
      3362         8.7240         105.15         102.79          10.75
      3363         8.7260          97.17          94.22          10.32
      3364         8.7280         106.06          88.60          10.77
      3365         8.7300          81.48          84.70           9.45
      3366         8.7320          99.06          81.85          10.43
      3367         8.7340          89.46          79.67           9.90
      3368         8.7360          83.80          77.96           9.58
      3369         8.7380          83.03          76.58           9.54
      3370         8.7400          86.27          75.45           9.73
      3371         8.7420          72.69          74.51           8.91
      3372         8.7440          84.67          73.72           9.64
      3373         8.7460          66.33          73.05           8.53
      3374         8.7480          72.79          72.47           8.94
      3375         8.7500          67.67          71.97           8.61
      3376         8.7520          78.95          71.53           9.31
      3377         8.7540          75.17          71.14           9.07
      3378         8.7560          63.06          70.80           8.31
      3379         8.7580          85.60          70.50           9.68
      3380         8.7600          79.22          70.22           9.30
      3381         8.7620          73.55          69.98           8.98
      3382         8.7640          63.76          69.75           8.36
      3383         8.7660          63.69          69.55           8.36
      3384         8.7680          58.95          69.36           8.03
      3385         8.7700          69.14          69.19           8.71
      3386         8.7720          64.84          69.04           8.43
      3387         8.7740          67.65          68.89           8.61
      3388         8.7760          69.19          68.76           8.70
      3389         8.7780          68.20          67.59           8.66
      3390         8.7800          62.43          67.52           8.28
      3391         8.7820          57.02          67.45           7.90
      3392         8.7840          68.97          67.39           8.69
      3393         8.7860          51.45          67.33           7.49
      3394         8.7880          64.79          67.28           8.42
      3395         8.7900          67.38          67.23           8.60
      3396         8.7920          58.74          67.18           8.01
      3397         8.7940          73.57          67.13           8.97
      3398         8.7960          72.89          67.09           8.91
      3399         8.7980          65.65          67.05           8.48
      3400         8.8000          69.83          67.20           8.75
      3401         8.8020          65.11          67.17           8.44
      3402         8.8040          55.22          66.64           7.76
      3403         8.8060          72.12          66.63           8.88
      3404         8.8080          52.35          66.63           7.58
      3405         8.8100          54.75          66.63           7.74
      3406         8.8120          67.74          66.63           8.62
      3407         8.8140          67.60          66.64           8.60
      3408         8.8160          73.53          66.64           8.97
      3409         8.8180          69.62          66.64           8.75
      3410         8.8200          66.39          66.65           8.52
      3411         8.8220          65.41          66.65           8.45
      3412         8.8240          65.85          66.66           8.50
      3413         8.8260          54.40          66.67           7.72
      3414         8.8280          55.60          66.69           7.81
      3415         8.8300          71.41          66.70           8.86
      3416         8.8320          79.05          66.72           9.32
      3417         8.8340          78.11          66.74           9.26
      3418         8.8360          55.88          66.77           7.83
      3419         8.8380          58.20          66.79           7.99
      3420         8.8400          68.86          66.83           8.69
      3421         8.8420          63.05          66.87           8.31
      3422         8.8440          53.94          66.91           7.67
      3423         8.8460          68.52          66.96           8.65
      3424         8.8480          74.63          67.02           9.06
      3425         8.8500          71.22          67.09           8.84
      3426         8.8520          56.67          67.18           7.87
      3427         8.8540          60.74          67.28           8.16
      3428         8.8560          59.99          67.39           8.11
      3429         8.8580          68.56          67.53           8.68
      3430         8.8600          65.99          67.70           8.51
      3431         8.8620          69.19          67.90           8.72
      3432         8.8640          60.97          68.15           8.18
      3433         8.8660          68.38          68.45           8.65
      3434         8.8680          75.01          68.84           9.06
      3435         8.8700          56.01          69.32           7.84
      3436         8.8720          62.87          69.96           8.31
      3437         8.8740          58.04          70.80           7.97
      3438         8.8760          68.40          71.98           8.66
      3439         8.8780          73.53          73.70           8.98
      3440         8.8800          74.06          76.35           9.01
      3441         8.8820          83.48          80.54           9.54
      3442         8.8840          90.40          87.08           9.95
      3443         8.8860          97.47          96.73          10.34
      3444         8.8880          84.69         109.34           9.62
      3445         8.8900         125.01         121.45          11.65
      3446         8.8920         130.25         125.05          11.90
      3447         8.8940          97.54         116.77          10.30
      3448         8.8960         122.52         103.67          11.56
      3449         8.8980          85.40          92.15           9.66
      3450         8.9000          84.08          83.88           9.58
      3451         8.9020          72.33          78.43           8.88
      3452         8.9040          75.85          74.97           9.10
      3453         8.9060          85.03          72.77           9.65
      3454         8.9080          86.97          71.30           9.75
      3455         8.9100          62.87          70.26           8.28
      3456         8.9120          69.30          69.50           8.69
      3457         8.9140          55.40          68.92           7.79
      3458         8.9160          55.35          68.47           7.78
      3459         8.9180          56.64          68.10           7.84
      3460         8.9200          72.29          67.81           8.89
      3461         8.9220          76.44          67.56           9.14
      3462         8.9240          65.57          67.36           8.47
      3463         8.9260          64.12          67.19           8.37
      3464         8.9280          71.33          67.05           8.85
      3465         8.9300          61.54          66.92           8.21
      3466         8.9320          65.31          66.82           8.45
      3467         8.9340          69.51          66.72           8.72
      3468         8.9360          67.63          66.64           8.60
      3469         8.9380          64.17          66.57           8.37
      3470         8.9400          71.13          66.50           8.81
      3471         8.9420          71.49          66.44           8.83
      3472         8.9440          70.28          66.39           8.77
      3473         8.9460          67.04          66.34           8.57
      3474         8.9480          59.03          66.30           8.04
      3475         8.9500          67.03          66.26           8.56
      3476         8.9520          60.15          66.22           8.09
      3477         8.9540          62.85          66.19           8.29
      3478         8.9560          66.71          66.16           8.53
      3479         8.9580          75.06          66.13           9.06
      3480         8.9600          62.68          66.10           8.28
      3481         8.9620          58.98          66.08           8.03
      3482         8.9640          54.74          66.05           7.73
      3483         8.9660          60.55          66.03           8.12
      3484         8.9680          58.03          66.01           7.97
      3485         8.9700          61.27          65.99           8.17
      3486         8.9720          82.73          65.97           9.52
      3487         8.9740          74.84          65.96           9.06
      3488         8.9760          65.28          65.94           8.46
      3489         8.9780          70.18          65.93           8.76
      3490         8.9800          71.10          65.91           8.82
      3491         8.9820          67.42          65.90           8.59
      3492         8.9840          67.22          65.69           8.58
      3493         8.9860          64.11          65.69           8.37
      3494         8.9880          66.07          65.68           8.48
      3495         8.9900          72.90          65.68           8.93
      3496         8.9920          75.97          65.67           9.12
      3497         8.9940          76.74          65.67           9.17
      3498         8.9960          65.55          65.66           8.46
      3499         8.9980          50.65          65.66           7.45
      3500         9.0000          55.29          65.65           7.78
      3501         9.0020          68.41          65.65           8.62
      3502         9.0040          71.74          65.64           8.79
      3503         9.0060          51.94          65.64           7.54
      3504         9.0080          60.12          65.63           8.12
      3505         9.0100          52.20          65.63           7.56
      3506         9.0120          57.39          65.62           7.92
      3507         9.0140          54.23          65.62           7.68
      3508         9.0160          71.47          65.61           8.82
      3509         9.0180          78.48          65.61           9.26
      3510         9.0200          73.67          65.60           8.97
      3511         9.0220          73.22          65.60           8.94
      3512         9.0240          66.18          65.60           8.52
      3513         9.0260          60.88          65.59           8.15
      3514         9.0280          62.04          65.59           8.23
      3515         9.0300          68.16          65.58           8.63
      3516         9.0320          64.06          65.58           8.37
      3517         9.0340          54.99          65.57           7.76
      3518         9.0360          52.29          65.57           7.55
      3519         9.0380          61.12          65.56           8.18
      3520         9.0400          67.06          65.56           8.55
      3521         9.0420          77.78          65.55           9.21
      3522         9.0440          68.42          65.55           8.65
      3523         9.0460          54.19          65.55           7.64
      3524         9.0480          52.86          65.54           7.61
      3525         9.0500          53.65          65.54           7.64
      3526         9.0520          66.38          65.53           8.52
      3527         9.0540          69.00          65.53           8.69
      3528         9.0560          74.46          65.52           9.02
      3529         9.0580          54.80          65.52           7.73
      3530         9.0600          58.18          65.52           7.96
      3531         9.0620          73.15          65.51           8.94
      3532         9.0640          67.51          65.51           8.57
      3533         9.0660          56.60          65.50           7.86
      3534         9.0680          64.18          65.50           8.38
      3535         9.0700          62.23          65.49           8.25
      3536         9.0720          64.92          65.49           8.43
      3537         9.0740          64.81          65.49           8.42
      3538         9.0760          53.10          65.48           7.62
      3539         9.0780          45.80          65.48           7.08
      3540         9.0800          60.93          65.47           8.14
      3541         9.0820          54.74          65.47           7.68
      3542         9.0840          54.50          65.47           7.72
      3543         9.0860          61.65          65.46           8.21
      3544         9.0880          59.26          65.46           8.05
      3545         9.0900          52.41          65.45           7.54
      3546         9.0920          67.68          65.45           8.61
      3547         9.0940          51.80          65.44           7.52
      3548         9.0960          65.55          65.44           8.47
      3549         9.0980          69.74          65.44           8.73
      3550         9.1000          76.05          65.43           9.12
      3551         9.1020          74.24          65.43           9.00
      3552         9.1040          65.68          65.42           8.47
      3553         9.1060          61.52          65.42           8.19
      3554         9.1080          59.46          65.42           8.07
      3555         9.1100          62.11          65.41           8.20
      3556         9.1120          76.05          65.41           9.10
      3557         9.1140          68.55          65.40           8.65
      3558         9.1160          71.90          65.40           8.85
      3559         9.1180          55.09          65.40           7.77
      3560         9.1200          55.06          65.39           7.74
      3561         9.1220          63.58          65.39           8.33
      3562         9.1240          70.63          65.38           8.79
      3563         9.1260          71.64          65.38           8.84
      3564         9.1280          63.93          65.38           8.37
      3565         9.1300          60.07          65.37           8.10
      3566         9.1320          62.90          65.37           8.30
      3567         9.1340          58.85          65.36           8.02
      3568         9.1360          69.24          65.36           8.69
      3569         9.1380          76.79          65.35           9.15
      3570         9.1400          53.51          65.35           7.64
      3571         9.1420          64.11          65.35           8.38
      3572         9.1440          64.44          65.34           8.37
      3573         9.1460          78.62          65.34           9.26
      3574         9.1480          65.93          65.33           8.49
      3575         9.1500          61.51          65.33           8.19
      3576         9.1520          63.53          65.32           8.33
      3577         9.1540          63.28          65.32           8.32
      3578         9.1560          79.54          65.32           9.34
      3579         9.1580          71.29          65.31           8.83
      3580         9.1600          56.11          65.31           7.83
      3581         9.1620          61.20          65.30           8.18
      3582         9.1640          71.26          65.30           8.84
      3583         9.1660          60.27          65.29           8.11
      3584         9.1680          66.55          65.29           8.53
      3585         9.1700          76.46          65.29           9.15
      3586         9.1720          68.43          65.28           8.64
      3587         9.1740          59.19          65.28           8.04
      3588         9.1760          60.33          65.27           8.11
      3589         9.1780          62.33          65.27           8.27
      3590         9.1800          64.73          65.26           8.42
      3591         9.1820          62.73          65.26           8.27
      3592         9.1840          66.54          65.25           8.53
      3593         9.1860          58.67          65.25           8.01
      3594         9.1880          57.52          65.25           7.92
      3595         9.1900          47.86          65.24           7.22
      3596         9.1920          57.96          65.24           7.95
      3597         9.1940          73.40          65.23           8.97
      3598         9.1960          65.54          65.23           8.47
      3599         9.1980          60.90          65.22           8.16
      3600         9.2000          63.14          65.22           8.31
      3601         9.2020          64.45          65.21           8.37
      3602         9.2040          60.01          65.21           8.09
      3603         9.2060          70.52          66.89           8.78
      3604         9.2080          62.42          66.96           8.27
      3605         9.2100          64.01          67.04           8.36
      3606         9.2120          73.17          67.12           8.94
      3607         9.2140          71.85          67.20           8.87
      3608         9.2160          65.47          67.30           8.46
      3609         9.2180          62.50          67.39           8.27
      3610         9.2200          65.80          69.67           8.49
      3611         9.2220          63.96          69.88           8.36
      3612         9.2240          77.21          70.11           9.19
      3613         9.2260          66.07          70.35           8.49
      3614         9.2280          63.87          70.62           8.35
      3615         9.2300          70.02          70.90           8.74
      3616         9.2320          70.38          71.21           8.77
      3617         9.2340          81.13          71.55           9.42
      3618         9.2360          83.99          71.91           9.57
      3619         9.2380          76.96          72.31           9.18
      3620         9.2400          68.96          72.75           8.68
      3621         9.2420          74.03          73.23           8.99
      3622         9.2440          82.52          73.76           9.50
      3623         9.2460          95.36          74.34          10.22
      3624         9.2480          92.24          74.98          10.05
      3625         9.2500          75.33          75.70           9.08
      3626         9.2520          82.06          76.50           9.45
      3627         9.2540         106.07          77.40          10.77
      3628         9.2560          92.28          78.40          10.05
      3629         9.2580          77.40          79.55           9.19
      3630         9.2600          86.21          80.84           9.69
      3631         9.2620          77.54          82.33           9.21
      3632         9.2640          94.09          84.04          10.16
      3633         9.2660          80.57          86.03           9.39
      3634         9.2680          96.53          88.35          10.27
      3635         9.2700         109.47          91.10          10.94
      3636         9.2720         117.29          94.37          11.32
      3637         9.2740         129.76          98.31          11.92
      3638         9.2760         113.36         103.14          11.13
      3639         9.2780         117.16         109.12          11.31
      3640         9.2800         131.13         116.70          11.96
      3641         9.2820         148.29         126.54          12.72
      3642         9.2840         155.42         139.85          13.05
      3643         9.2860         155.96         158.63          13.04
      3644         9.2880         177.22         187.79          13.91
      3645         9.2900         201.76         229.83          14.85
      3646         9.2920         242.94         292.79          16.28
      3647         9.2940         324.73         382.68          18.75
      3648         9.2960         511.94         497.16          23.63
      3649         9.2980         669.40         607.17          27.04
      3650         9.3000         757.09         650.72          28.77
      3651         9.3020         617.33         608.28          25.96
      3652         9.3040         494.35         541.77          23.26
      3653         9.3060         440.78         509.63          21.94
      3654         9.3080         515.30         533.90          23.74
      3655         9.3100         583.25         614.40          25.22
      3656         9.3120         735.19         723.24          28.35
      3657         9.3140         781.19         784.54          29.24
      3658         9.3160         671.20         726.62          27.08
      3659         9.3180         536.56         586.92          24.25
      3660         9.3200         409.40         445.05          21.13
      3661         9.3220         306.07         335.32          18.29
      3662         9.3240         240.09         259.20          16.22
      3663         9.3260         220.40         209.00          15.52
      3664         9.3280         185.47         176.20          14.23
      3665         9.3300         171.96         154.27          13.72
      3666         9.3320         141.37         138.99          12.44
      3667         9.3340         137.73         127.87          12.28
      3668         9.3360         135.15         119.50          12.15
      3669         9.3380         106.48         113.07          10.80
      3670         9.3400         110.99         108.08          11.02
      3671         9.3420         101.00         104.20          10.50
      3672         9.3440          98.82         101.20          10.37
      3673         9.3460         103.91          98.93          10.67
      3674         9.3480          91.25          97.29           9.97
      3675         9.3500         110.42          96.20          10.99
      3676         9.3520         122.35          95.65          11.57
      3677         9.3540         105.50          95.63          10.74
      3678         9.3560         107.17          96.17          10.82
      3679         9.3580         109.26          97.34          10.94
      3680         9.3600         112.25          99.25          11.07
      3681         9.3620         109.19         102.10          10.92
      3682         9.3640         112.37         106.17          11.10
      3683         9.3660         115.54         111.96          11.24
      3684         9.3680         139.52         120.34          12.35
      3685         9.3700         162.42         132.89          13.34
      3686         9.3720         160.20         152.28          13.23
      3687         9.3740         175.69         182.62          13.86
      3688         9.3760         221.16         229.24          15.54
      3689         9.3780         289.43         296.87          17.80
      3690         9.3800         348.26         384.16          19.52
      3691         9.3820         451.42         468.48          22.22
      3692         9.3840         519.59         497.70          23.83
      3693         9.3860         460.95         449.28          22.43
      3694         9.3880         388.92         359.15          20.58
      3695         9.3900         274.14         276.14          17.28
      3696         9.3920         219.67         214.57          15.45
      3697         9.3940         154.79         172.85          12.97
      3698         9.3960         142.25         144.12          12.46
      3699         9.3980         141.00         126.60          12.42
      3700         9.4000         113.35         114.94          11.13
      3701         9.4020         107.05         106.83          10.81
      3702         9.4040         109.71         100.95          10.96
      3703         9.4060          98.32          96.54          10.36
      3704         9.4080          86.76          93.17           9.72
      3705         9.4100         112.55          88.47          11.10
      3706         9.4120          93.20          86.53          10.07
      3707         9.4140          90.11          85.05           9.92
      3708         9.4160          93.25          83.92          10.09
      3709         9.4180          86.26          83.09           9.71
      3710         9.4200         100.91          82.51          10.51
      3711         9.4220          94.35          82.14          10.15
      3712         9.4240          81.95          81.96           9.47
      3713         9.4260          83.93          81.97           9.55
      3714         9.4280          96.83          82.14          10.27
      3715         9.4300          94.31          82.48          10.16
      3716         9.4320         104.00          82.99          10.67
      3717         9.4340          97.37          83.68          10.31
      3718         9.4360          99.16          84.55          10.39
      3719         9.4380          94.47          85.65          10.17
      3720         9.4400         106.83          86.98          10.80
      3721         9.4420         118.11          88.58          11.35
      3722         9.4440         113.31          90.51          11.14
      3723         9.4460         110.48          92.82          10.99
      3724         9.4480         119.30          95.61          11.44
      3725         9.4500         116.02          98.96          11.25
      3726         9.4520         135.09         103.03          12.14
      3727         9.4540         120.15         108.02          11.47
      3728         9.4560         148.16         114.18          12.74
      3729         9.4580         148.66         121.89          12.75
      3730         9.4600         165.70         131.68          13.47
      3731         9.4620         179.51         144.38          14.01
      3732         9.4640         213.21         161.28          15.28
      3733         9.4660         222.79         184.69          15.61
      3734         9.4680         230.48         218.68          15.88
      3735         9.4700         266.26         270.03          17.08
      3736         9.4720         297.40         349.18          18.02
      3737         9.4740         426.10         469.29          21.61
      3738         9.4760         519.33         642.15          23.85
      3739         9.4780         653.63         863.85          26.77
      3740         9.4800         813.07        1075.50          29.82
      3741         9.4820         979.46        1149.63          32.73
      3742         9.4840         997.71        1019.80          33.02
      3743         9.4860         857.23         793.03          30.56
      3744         9.4880         726.37         583.18          28.12
      3745         9.4900         551.96         426.72          24.42
      3746         9.4920         355.48         320.18          19.62
      3747         9.4940         257.07         250.47          16.73
      3748         9.4960         208.86         205.12          15.07
      3749         9.4980         184.87         174.75          14.21
      3750         9.5000         160.51         153.48          13.22
      3751         9.5020         148.73         137.89          12.75
      3752         9.5040         132.02         126.04          12.01
      3753         9.5060         124.53         116.79          11.66
      3754         9.5080         104.31         109.43          10.66
      3755         9.5100          90.32         103.49           9.93
      3756         9.5120          96.27          98.62          10.26
      3757         9.5140          94.74          94.59          10.18
      3758         9.5160          89.71          91.21           9.89
      3759         9.5180          96.28          88.35          10.24
      3760         9.5200          91.39          85.91          10.00
      3761         9.5220          84.13          83.82           9.59
      3762         9.5240          85.63          82.00           9.68
      3763         9.5260          75.61          80.42           9.10
      3764         9.5280          83.36          79.03           9.56
      3765         9.5300          76.26          77.81           9.14
      3766         9.5320          61.99          76.73           8.23
      3767         9.5340          68.07          75.76           8.63
      3768         9.5360          76.26          74.90           9.13
      3769         9.5380          78.98          74.13           9.29
      3770         9.5400          72.13          73.43           8.89
      3771         9.5420          68.35          72.80           8.64
      3772         9.5440          68.76          72.23           8.64
      3773         9.5460          67.52          71.71           8.58
      3774         9.5480          70.06          71.24           8.74
      3775         9.5500          72.92          70.82           8.91
      3776         9.5520          55.09          70.43           7.75
      3777         9.5540          66.58          70.09           8.51
      3778         9.5560          83.35          69.79           9.50
      3779         9.5580          54.06          69.53           7.69
      3780         9.5600          59.85          69.33           8.07
      3781         9.5620          74.89          69.19           9.04
      3782         9.5640          63.13          69.15           8.29
      3783         9.5660          67.11          69.19           8.58
      3784         9.5680          61.32          69.27           8.20
      3785         9.5700          66.28          69.23           8.52
      3786         9.5720          56.40          68.93           7.84
      3787         9.5740          58.89          68.46           8.02
      3788         9.5760          65.53          67.99           8.46
      3789         9.5780          70.05          67.59           8.75
      3790         9.5800          70.28          63.85           8.77
      3791         9.5820          54.92          63.73           7.75
      3792         9.5840          65.93          63.64           8.48
      3793         9.5860          60.26          63.58           8.10
      3794         9.5880          54.52          63.54           7.72
      3795         9.5900          67.80          63.50           8.59
      3796         9.5920          60.96          63.47           8.14
      3797         9.5940          69.55          63.44           8.73
      3798         9.5960          58.87          63.41           8.01
      3799         9.5980          69.14          63.39           8.69
      3800         9.6000          70.87          63.37           8.80
      3801         9.6020          68.36          63.53           8.65
      3802         9.6040          75.79          63.52           9.11
      3803         9.6060          78.53          63.51           9.27
      3804         9.6080          66.76          63.50           8.53
      3805         9.6100          52.83          63.49           7.60
      3806         9.6120          63.01          63.48           8.30
      3807         9.6140          66.65          63.48           8.55
      3808         9.6160          67.91          63.47           8.62
      3809         9.6180          64.06          63.47           8.35
      3810         9.6200          58.81          63.46           8.02
      3811         9.6220          64.31          63.46           8.39
      3812         9.6240          64.20          63.46           8.39
      3813         9.6260          61.37          63.46           8.20
      3814         9.6280          65.16          63.46           8.43
      3815         9.6300          72.93          63.47           8.93
      3816         9.6320          76.76          63.47           9.16
      3817         9.6340          74.77          63.48           9.06
      3818         9.6360          59.63          63.49           8.08
      3819         9.6380          63.78          63.50           8.36
      3820         9.6400          67.19          63.52           8.58
      3821         9.6420          67.93          63.53           8.61
      3822         9.6440          75.73          63.56           9.10
      3823         9.6460          61.20          63.58           8.17
      3824         9.6480          70.63          63.61           8.78
      3825         9.6500          61.84          63.65           8.23
      3826         9.6520          55.80          63.69           7.80
      3827         9.6540          57.25          63.90           7.91
      3828         9.6560          61.10          63.97           8.17
      3829         9.6580          64.84          64.05           8.42
      3830         9.6600          72.59          64.14           8.90
      3831         9.6620          75.09          64.45           9.06
      3832         9.6640          62.72          64.59           8.28
      3833         9.6660          57.44          64.75           7.91
      3834         9.6680          70.42          64.94           8.78
      3835         9.6700          77.31          65.18           9.19
      3836         9.6720          74.42          65.46           9.01
      3837         9.6740          67.12          65.81           8.57
      3838         9.6760          64.66          66.24           8.40
      3839         9.6780          73.68          66.79           8.98
      3840         9.6800          84.13          67.50           9.60
      3841         9.6820          68.28          68.43           8.63
      3842         9.6840          66.02          69.72           8.49
      3843         9.6860          84.91          71.57           9.64
      3844         9.6880          91.58          74.35          10.01
      3845         9.6900          93.60          78.58          10.12
      3846         9.6920          94.74          84.93          10.18
      3847         9.6940         123.54          93.98          11.62
      3848         9.6960         121.65         105.49          11.53
      3849         9.6980         146.78         116.56          12.67
      3850         9.7000         144.99         120.61          12.60
      3851         9.7020         154.14         114.25          12.98
      3852         9.7040         121.21         102.66          11.52
      3853         9.7060         107.05          91.77          10.82
      3854         9.7080          95.72          83.58          10.22
      3855         9.7100         116.43          77.97          11.28
      3856         9.7120          71.94          74.32           8.83
      3857         9.7140          86.12          71.99           9.67
      3858         9.7160          86.85          70.50           9.73
      3859         9.7180          74.12          69.54           8.99
      3860         9.7200          81.30          68.92           9.41
      3861         9.7220          84.10          68.56           9.60
      3862         9.7240          67.67          68.40           8.61
      3863         9.7260          71.27          68.41           8.82
      3864         9.7280          82.99          68.59           9.53
      3865         9.7300          69.18          68.96           8.70
      3866         9.7320          77.98          69.54           9.23
      3867         9.7340          77.15          70.38           9.18
      3868         9.7360          91.44          71.59          10.01
      3869         9.7380          78.60          73.33           9.25
      3870         9.7400          59.71          75.91           8.08
      3871         9.7420          67.68          79.77           8.60
      3872         9.7440          76.94          85.56           9.18
      3873         9.7460          94.54          93.97          10.18
      3874         9.7480         105.45         105.46          10.75
      3875         9.7500         119.16         118.95          11.43
      3876         9.7520         133.31         130.37          12.08
      3877         9.7540         120.67         136.01          11.48
      3878         9.7560         113.17         138.24          11.12
      3879         9.7580         117.57         140.81          11.33
      3880         9.7600         149.46         140.44          12.80
      3881         9.7620         157.44         131.63          13.12
      3882         9.7640         132.94         116.83          12.04
      3883         9.7660         108.24         102.37          10.88
      3884         9.7680         114.32          91.16          11.16
      3885         9.7700          81.60          83.24           9.42
      3886         9.7720          95.58          77.89          10.20
      3887         9.7740          70.32          74.29           8.76
      3888         9.7760          74.15          71.82           8.99
      3889         9.7780          80.22          70.06           9.36
      3890         9.7800          71.74          68.76           8.86
      3891         9.7820          75.02          67.76           9.06
      3892         9.7840          70.40          66.97           8.76
      3893         9.7860          58.11          66.34           7.97
      3894         9.7880          55.25          65.83           7.77
      3895         9.7900          63.27          65.66           8.32
      3896         9.7920          61.74          65.32           8.22
      3897         9.7940          61.10          65.03           8.18
      3898         9.7960          57.76          64.80           7.94
      3899         9.7980          64.05          64.42           8.32
      3900         9.8000          52.79          64.26           7.59
      3901         9.8020          57.78          64.14           7.95
      3902         9.8040          71.15          64.04           8.83
      3903         9.8060          64.06          63.96           8.36
      3904         9.8080          64.87          63.91           8.39
      3905         9.8100          62.85          63.88           8.28
      3906         9.8120          65.70          63.87           8.47
      3907         9.8140          66.74          63.88           8.49
      3908         9.8160          48.87          63.91           7.29
      3909         9.8180          61.69          63.97           8.22
      3910         9.8200          53.66          64.06           7.65
      3911         9.8220          65.30          64.19           8.44
      3912         9.8240          67.58          64.35           8.60
      3913         9.8260          69.30          64.57           8.71
      3914         9.8280          68.36          64.85           8.64
      3915         9.8300          58.58          65.21           8.00
      3916         9.8320          72.17          65.68           8.88
      3917         9.8340          56.96          66.30           7.89
      3918         9.8360          59.91          67.15           8.10
      3919         9.8380          66.97          68.41           8.57
      3920         9.8400          70.57          70.19           8.79
      3921         9.8420          57.85          72.87           7.95
      3922         9.8440          63.51          76.91           8.34
      3923         9.8460          64.61          82.78           8.41
      3924         9.8480          84.74          90.70           9.61
      3925         9.8500          98.30          99.64          10.36
      3926         9.8520          98.74         105.69          10.40
      3927         9.8540          98.74         104.63          10.40
      3928         9.8560         103.04          97.38          10.60
      3929         9.8580         104.63          88.88          10.69
      3930         9.8600          86.08          81.80           9.69
      3931         9.8620          85.29          77.03           9.65
      3932         9.8640          78.21          74.05           9.25
      3933         9.8660          73.67          72.40           8.97
      3934         9.8680          87.09          71.71           9.76
      3935         9.8700          67.21          71.77           8.57
      3936         9.8720          57.06          72.54           7.88
      3937         9.8740          65.50          74.15           8.47
      3938         9.8760          68.98          76.95           8.69
      3939         9.8780          80.04          81.50           9.37
      3940         9.8800          85.85          88.59           9.69
      3941         9.8820          89.47          99.00           9.89
      3942         9.8840          97.02         112.88          10.31
      3943         9.8860         129.06         127.81          11.88
      3944         9.8880         152.88         136.53          12.94
      3945         9.8900         152.55         132.09          12.90
      3946         9.8920         157.61         118.14          13.11
      3947         9.8940         115.03         103.10          11.19
      3948         9.8960          89.02          91.07           9.85
      3949         9.8980          76.82          82.52           9.18
      3950         9.9000          74.69          76.77           9.05
      3951         9.9020          73.01          72.97           8.93
      3952         9.9040          64.45          70.44           8.36
      3953         9.9060          60.44          68.70           8.12
      3954         9.9080          69.31          67.46           8.70
      3955         9.9100          70.76          66.56           8.79
      3956         9.9120          77.20          65.89           9.18
      3957         9.9140          67.77          65.42           8.61
      3958         9.9160          64.24          65.10           8.38
      3959         9.9180          67.66          64.93           8.60
      3960         9.9200          73.53          64.93           8.97
      3961         9.9220          59.88          65.12           8.07
      3962         9.9240          56.33          65.60           7.83
      3963         9.9260          73.81          66.49           8.97
      3964         9.9280          58.79          67.96           8.02
      3965         9.9300          54.01          70.16           7.63
      3966         9.9320          80.64          73.06           9.39
      3967         9.9340          81.45          76.08           9.44
      3968         9.9360          80.58          77.42           9.39
      3969         9.9380          77.35          75.95           9.20
      3970         9.9400          61.04          72.80           8.16
      3971         9.9420          78.63          69.65           9.27
      3972         9.9440          64.13          67.17           8.36
      3973         9.9460          62.72          65.41           8.26
      3974         9.9480          60.52          64.22           8.14
      3975         9.9500          61.01          63.41           8.16
      3976         9.9520          48.12          62.85           7.25
      3977         9.9540          59.24          62.31           8.04
      3978         9.9560          53.85          62.01           7.64
      3979         9.9580          52.35          61.78           7.56
      3980         9.9600          44.94          61.59           6.99
      3981         9.9620          61.86          61.44           8.22
      3982         9.9640          61.80          61.31           8.22
      3983         9.9660          58.06          61.20           7.96
      3984         9.9680          57.60          61.11           7.94
      3985         9.9700          62.78          61.03           8.29
      3986         9.9720          60.35          60.96           8.12
      3987         9.9740          64.96          60.91           8.42
      3988         9.9760          51.93          60.86           7.51
      3989         9.9780          52.79          60.81           7.61
      3990         9.9800          57.49          60.78           7.91
      3991         9.9820          51.06          60.75           7.45
      3992         9.9840          53.22          60.72           7.63
      3993         9.9860          58.11          60.70           7.97
      3994         9.9880          67.28          60.44           8.57
      3995         9.9900          59.10          60.45           8.02
      3996         9.9920          58.16          60.46           7.96
      3997         9.9940          41.53          60.47           6.74
      3998         9.9960          47.41          60.50           7.20
      3999         9.9980          50.75          60.53          10.59
      4000        10.0000          53.30          60.58           7.23
      4001        10.0020          49.53          60.64           6.97
      4002        10.0040          51.43          60.72           7.15
      4003        10.0060          61.23          60.81           7.77
      4004        10.0080          60.79          60.94           7.72
      4005        10.0100          52.89          61.10           7.19
      4006        10.0120          61.95          61.30           7.85
      4007        10.0140          49.24          61.57           6.86
      4008        10.0160          49.85          61.93           7.03
      4009        10.0180          63.17          62.43           7.96
      4010        10.0200          52.54          63.15           7.14
      4011        10.0220          62.63          64.21           7.85
      4012        10.0240          67.12          65.81           8.14
      4013        10.0260          72.07          68.22           8.36
      4014        10.0280          90.71          71.70           9.47
      4015        10.0300          77.36          76.34           8.72
      4016        10.0320          68.19          81.42           8.19
      4017        10.0340          85.16          84.68           9.17
      4018        10.0360          78.55          83.64           8.79
      4019        10.0380          78.10          79.11           8.86
      4020        10.0400          55.77          74.02           7.45
      4021        10.0420          64.87          69.83           8.07
      4022        10.0440          48.54          66.82           6.96
      4023        10.0460          65.02          64.76           8.10
      4024        10.0480          56.88          63.39           7.55
      4025        10.0500          55.62          62.47           7.37
      4026        10.0520          65.70          61.82           8.15
      4027        10.0540          62.84          61.35           7.92
      4028        10.0560          58.92          61.00           7.66
      4029        10.0580          53.87          60.72           7.28
      4030        10.0600          47.24          60.50           6.78
      4031        10.0620          56.01          60.32           7.44
      4032        10.0640          60.84          60.17           7.76
      4033        10.0660          63.07          60.04           7.80
      4034        10.0680          55.51          59.93           7.42
      4035        10.0700          58.28          59.84           7.60
      4036        10.0720          66.80          59.76           8.20
      4037        10.0740          46.52          59.68           6.74
      4038        10.0760          60.61          59.62           7.78
      4039        10.0780          69.04          59.56           8.31
      4040        10.0800          73.91          59.51           8.52
      4041        10.0820          66.03          59.46           7.97
      4042        10.0840          58.50          59.41           7.74
      4043        10.0860          50.62          59.37           7.11
      4044        10.0880          57.17          59.33           7.53
      4045        10.0900          59.11          59.30           7.66
      4046        10.0920          48.08          59.26           6.83
      4047        10.0940          59.06          59.23           7.63
      4048        10.0960          56.54          59.20           7.47
      4049        10.0980          54.48          59.17           7.39
      4050        10.1000          53.75          59.15           7.33
      4051        10.1020          48.49          59.12           6.86
      4052        10.1040          64.63          59.09           8.02
      4053        10.1060          59.46          59.07           7.67
      4054        10.1080          48.61          59.05           6.84
      4055        10.1100          56.47          59.02           7.50
      4056        10.1120          43.75          59.00           6.55
      4057        10.1140          52.31          58.98           7.21
      4058        10.1160          60.79          58.96           7.78
      4059        10.1180          69.21          58.94           8.35
      4060        10.1200          62.06          58.92           7.83
      4061        10.1220          62.58          58.90           7.85
      4062        10.1240          71.56          58.88           8.51
      4063        10.1260          75.13          58.86           8.69
      4064        10.1280          53.14          58.84           7.32
      4065        10.1300          56.87          58.82           7.55
      4066        10.1320          56.81          58.81           7.57
      4067        10.1340          63.50          58.79           8.08
      4068        10.1360          60.00          58.69           7.74
      4069        10.1380          73.04          58.82           8.57
      4070        10.1400          62.91          58.81           7.91
      4071        10.1420          71.39          58.81           8.40
      4072        10.1440          65.20          58.80           8.05
      4073        10.1460          59.86          58.80           7.64
      4074        10.1480          70.90          58.80           8.34
      4075        10.1500          53.33          58.79           7.20
      4076        10.1520          70.64          58.79           8.37
      4077        10.1540          57.44          58.78           7.53
      4078        10.1560          51.19          58.78           7.10
      4079        10.1580          49.26          58.78           6.94
      4080        10.1600          57.69          58.78           7.63
      4081        10.1620          59.35          58.78           7.64
      4082        10.1640          64.51          58.78           7.97
      4083        10.1660          65.00          58.78           8.01
      4084        10.1680          58.94          58.79           7.76
      4085        10.1700          49.31          58.79           6.97
      4086        10.1720          68.75          58.80           8.32
      4087        10.1740          56.47          58.81           7.41
      4088        10.1760          63.62          58.82           7.92
      4089        10.1780          54.32          58.83           7.30
      4090        10.1800          64.27          58.85           7.94
      4091        10.1820          69.05          58.87           8.32
      4092        10.1840          46.75          58.89           6.75
      4093        10.1860          66.85          58.92           8.19
      4094        10.1880          56.33          58.95           7.50
      4095        10.1900          63.93          58.99           8.01
      4096        10.1920          65.89          59.03           8.08
      4097        10.1940          54.16          59.08           7.26
      4098        10.1960          57.09          59.14           7.49
      4099        10.1980          52.11          59.21           7.18
      4100        10.2000          55.08          59.29           7.38
      4101        10.2020          66.10          59.38           8.11
      4102        10.2040          58.36          59.50           7.58
      4103        10.2060          48.85          59.63           6.92
      4104        10.2080          55.90          59.80           7.36
      4105        10.2100          59.56          60.00           7.69
      4106        10.2120          72.07          60.24           8.46
      4107        10.2140          64.27          60.54           8.01
      4108        10.2160          66.80          60.92           8.23
      4109        10.2180          54.32          61.41           7.29
      4110        10.2200          48.38          62.04           6.88
      4111        10.2220          56.31          62.90           7.48
      4112        10.2240          50.95          64.09           7.06
      4113        10.2260          63.21          65.84           7.85
      4114        10.2280          69.88          68.43           8.28
      4115        10.2300          75.30          72.30           8.74
      4116        10.2320          69.07          77.89           8.30
      4117        10.2340          76.02          85.46           8.67
      4118        10.2360         118.87          94.25          10.97
      4119        10.2380         111.81         101.12          10.62
      4120        10.2400         106.07         101.57          10.27
      4121        10.2420          94.39          95.50           9.56
      4122        10.2440          81.58          87.32           8.97
      4123        10.2460          74.86          80.10           8.64
      4124        10.2480          76.75          74.43           8.78
      4125        10.2500          65.06          70.14           8.04
      4126        10.2520          63.65          67.05           7.89
      4127        10.2540          78.26          64.89           8.84
      4128        10.2560          63.60          63.38           7.98
      4129        10.2580          65.17          62.31           8.09
      4130        10.2600          57.51          61.53           7.58
      4131        10.2620          55.28          60.94           7.36
      4132        10.2640          67.28          60.48           8.15
      4133        10.2660          60.18          60.12           7.67
      4134        10.2680          65.77          59.83           8.10
      4135        10.2700          61.02          59.59           7.74
      4136        10.2720          59.04          59.39           7.68
      4137        10.2740          54.33          59.22           7.35
      4138        10.2760          57.83          59.08           7.57
      4139        10.2780          60.05          58.95           7.81
      4140        10.2800          53.71          58.84           7.33
      4141        10.2820          54.54          58.75           7.38
      4142        10.2840          65.54          58.67           8.11
      4143        10.2860          57.80          58.59           7.61
      4144        10.2880          47.47          58.53           6.87
      4145        10.2900          47.32          58.59           6.82
      4146        10.2920          57.45          58.55           7.51
      4147        10.2940          62.92          58.50           7.82
      4148        10.2960          69.14          58.46           8.26
      4149        10.2980          63.15          58.43           7.95
      4150        10.3000          53.30          58.40           7.28
      4151        10.3020          63.97          58.37           7.95
      4152        10.3040          59.41          58.35           7.63
      4153        10.3060          51.03          58.33           7.16
      4154        10.3080          62.10          58.31           7.92
      4155        10.3100          67.11          58.29           8.19
      4156        10.3120          65.90          58.28           8.10
      4157        10.3140          59.57          58.27           7.68
      4158        10.3160          50.13          58.26           7.05
      4159        10.3180          57.90          58.25           7.61
      4160        10.3200          63.87          58.24           7.95
      4161        10.3220          65.61          58.24           8.07
      4162        10.3240          70.72          58.24           8.42
      4163        10.3260          67.26          58.24           8.13
      4164        10.3280          57.87          58.24           7.49
      4165        10.3300          50.45          58.25           6.98
      4166        10.3320          53.99          58.26           7.32
      4167        10.3340          74.71          58.27           8.69
      4168        10.3360          65.96          58.28           8.09
      4169        10.3380          65.47          58.30           8.06
      4170        10.3400          64.72          58.33           8.06
      4171        10.3420          62.06          58.21           7.84
      4172        10.3440          59.41          58.25           7.77
      4173        10.3460          60.97          58.29           7.76
      4174        10.3480          59.82          58.34           7.65
      4175        10.3500          66.31          58.39           8.18
      4176        10.3520          55.48          58.46           7.35
      4177        10.3540          65.08          58.54           8.00
      4178        10.3560          64.53          58.63           7.97
      4179        10.3580          65.17          58.75           8.03
      4180        10.3600          58.29          58.88           7.55
      4181        10.3620          57.42          59.04           7.51
      4182        10.3640          49.87          59.29           7.03
      4183        10.3660          56.96          59.53           7.50
      4184        10.3680          58.71          59.83           7.66
      4185        10.3700          63.24          60.20           8.01
      4186        10.3720          47.79          60.69           6.86
      4187        10.3740          71.15          61.35           8.47
      4188        10.3760          58.81          62.25           7.69
      4189        10.3780          61.28          63.54           7.89
      4190        10.3800          50.95          65.45           7.04
      4191        10.3820          65.31          68.28           8.01
      4192        10.3840          71.24          72.41           8.38
      4193        10.3860          65.66          78.10           8.01
      4194        10.3880          78.16          85.09           8.77
      4195        10.3900          88.79          91.48           9.39
      4196        10.3920         101.28          93.58          10.10
      4197        10.3940          76.11          89.71           8.74
      4198        10.3960          73.57          82.78           8.57
      4199        10.3980          76.65          76.11           8.76
      4200        10.4000          62.16          70.94           7.89
      4201        10.4020          57.18          67.27           7.64
      4202        10.4040          54.71          64.78           7.38
      4203        10.4060          59.88          63.11           7.62
      4204        10.4080          67.56          61.97           8.18
      4205        10.4100          53.87          61.17           7.27
      4206        10.4120          61.19          60.59           7.84
      4207        10.4140          56.77          60.15           7.53
      4208        10.4160          64.17          59.81           8.06
      4209        10.4180          54.88          59.54           7.35
      4210        10.4200          57.68          59.33           7.52
      4211        10.4220          59.70          59.17           7.61
      4212        10.4240          57.30          59.04           7.51
      4213        10.4260          57.22          58.93           7.50
      4214        10.4280          57.56          58.85           7.53
      4215        10.4300          56.78          58.80           7.39
      4216        10.4320          55.58          58.76           7.39
      4217        10.4340          48.81          58.74           6.80
      4218        10.4360          66.63          58.74           8.06
      4219        10.4380          58.35          58.75           7.53
      4220        10.4400          71.47          58.79           8.31
      4221        10.4420          51.83          58.85           7.11
      4222        10.4440          60.81          58.95           7.79
      4223        10.4460          57.16          59.08           7.53
      4224        10.4480          62.16          59.26           7.86
      4225        10.4500          58.84          59.51           7.62
      4226        10.4520          56.82          59.87           7.56
      4227        10.4540          73.16          60.39           8.62
      4228        10.4560          62.99          61.17           7.88
      4229        10.4580          69.89          62.35           8.43
      4230        10.4600          61.80          64.06           7.84
      4231        10.4620          67.37          66.44           8.10
      4232        10.4640          80.04          69.43           8.88
      4233        10.4660          79.11          72.33           8.89
      4234        10.4680          80.81          73.59           9.03
      4235        10.4700          71.14          72.22           8.43
      4236        10.4720          56.74          69.28           7.39
      4237        10.4740          68.65          66.29           8.30
      4238        10.4760          54.95          63.91           7.43
      4239        10.4780          62.82          62.20           7.92
      4240        10.4800          64.29          61.03           8.02
      4241        10.4820          61.08          60.24           7.84
      4242        10.4840          62.35          59.70           7.91
      4243        10.4860          50.23          59.32           6.96
      4244        10.4880          50.97          59.04           7.18
      4245        10.4900          55.91          58.83           7.49
      4246        10.4920          53.04          58.67           7.28
      4247        10.4940          58.94          58.54           7.70
      4248        10.4960          50.67          58.32           7.10
      4249        10.4980          43.74          58.24           6.60
      4250        10.5000          63.46          58.17           7.99
      4251        10.5020          56.13          58.12           7.47
      4252        10.5040          51.38          58.08           7.14
      4253        10.5060          71.15          58.04           8.43
      4254        10.5080          65.87          58.01           8.06
      4255        10.5100          72.27          57.99           8.40
      4256        10.5120          69.22          57.97           8.27
      4257        10.5140          62.09          57.96           7.88
      4258        10.5160          73.22          57.94           8.53
      4259        10.5180          65.73          57.94           8.01
      4260        10.5200          68.57          57.93           8.26
      4261        10.5220          67.88          57.93           8.25
      4262        10.5240          73.77          57.94           8.56
      4263        10.5260          72.61          57.94           8.52
      4264        10.5280          65.36          57.95           8.03
      4265        10.5300          51.79          57.97           7.06
      4266        10.5320          69.14          57.98           8.28
      4267        10.5340          66.26          58.01           8.08
      4268        10.5360          68.51          58.04           8.26
      4269        10.5380          78.11          58.08           8.79
      4270        10.5400          84.29          58.14           9.13
      4271        10.5420          81.29          58.21           8.95
      4272        10.5440          80.18          58.30           8.94
      4273        10.5460          72.66          58.43           8.48
      4274        10.5480          80.15          58.62           8.94
      4275        10.5500          82.75          58.90           9.11
      4276        10.5520          75.40          59.32           8.64
      4277        10.5540          76.92          59.91           8.78
      4278        10.5560          75.22          60.72           8.69
      4279        10.5580          72.74          61.70           8.51
      4280        10.5600          69.12          62.57           8.27
      4281        10.5620          59.36          62.82           7.63
      4282        10.5640          53.35          62.25           7.26
      4283        10.5660          60.31          61.29           7.76
      4284        10.5680          59.10          60.37           7.72
      4285        10.5700          63.07          59.66           7.96
      4286        10.5720          64.21          59.10           7.94
      4287        10.5740          60.74          58.75           7.69
      4288        10.5760          66.90          58.52           8.22
      4289        10.5780          51.64          58.37           7.09
      4290        10.5800          58.63          58.26           7.57
      4291        10.5820          52.51          58.18           7.27
      4292        10.5840          64.36          58.12           8.00
      4293        10.5860          59.83          58.08           7.67
      4294        10.5880          47.73          58.05           6.89
      4295        10.5900          59.29          58.02           7.67
      4296        10.5920          59.66          58.00           7.63
      4297        10.5940          58.75          57.99           7.65
      4298        10.5960          55.40          57.97           7.41
      4299        10.5980          62.69          57.97           7.89
      4300        10.6000          69.42          57.96           8.33
      4301        10.6020          53.31          57.95           7.22
      4302        10.6040          54.07          57.95           7.32
      4303        10.6060          54.01          57.95           7.29
      4304        10.6080          52.10          57.95           7.23
      4305        10.6100          52.53          57.95           7.27
      4306        10.6120          68.84          57.95           8.32
      4307        10.6140          67.30          57.96           8.32
      4308        10.6160          62.93          57.96           7.94
      4309        10.6180          67.88          57.96           8.26
      4310        10.6200          55.21          57.97           7.38
      4311        10.6220          59.92          57.97           7.69
      4312        10.6240          54.84          57.98           7.36
      4313        10.6260          47.05          57.98           6.76
      4314        10.6280          60.03          58.94           7.69
      4315        10.6300          60.19          58.99           7.72
      4316        10.6320          54.37          59.03           7.33
      4317        10.6340          59.24          59.08           7.67
      4318        10.6360          56.17          59.13           7.44
      4319        10.6380          53.17          59.19           7.21
      4320        10.6400          72.61          59.25           8.55
      4321        10.6420          50.56          59.31           7.00
      4322        10.6440          55.34          59.37           7.40
      4323        10.6460          55.37          59.44           7.41
      4324        10.6480          52.67          59.52           7.26
      4325        10.6500          61.24          59.60           7.79
      4326        10.6520          62.29          59.68           7.80
      4327        10.6540          58.20          59.77           7.68
      4328        10.6560          56.96          59.87           7.65
      4329        10.6580          56.52          59.97           7.60
      4330        10.6600          57.64          60.09           7.62
      4331        10.6620          62.78          60.21           7.90
      4332        10.6640          67.94          60.34           8.19
      4333        10.6660          55.93          60.49           7.46
      4334        10.6680          61.27          60.63           7.79
      4335        10.6700          54.52          60.80           7.30
      4336        10.6720          66.90          60.98           8.25
      4337        10.6740          55.17          61.19           7.42
      4338        10.6760          68.18          61.41           8.22
      4339        10.6780          70.56          61.66           8.40
      4340        10.6800          61.75          61.94           7.86
      4341        10.6820          58.52          62.25           7.45
      4342        10.6840          84.18          62.60           9.10
      4343        10.6860          68.86          62.99           8.28
      4344        10.6880          60.53          63.43           7.80
      4345        10.6900          61.33          63.93           7.84
      4346        10.6920          68.15          64.50           8.26
      4347        10.6940          73.79          65.16           8.60
      4348        10.6960          69.84          65.93           8.39
      4349        10.6980          61.46          66.83           7.82
      4350        10.7000          76.35          67.88           8.72
      4351        10.7020          90.44          69.14           9.52
      4352        10.7040          73.08          70.65           8.50
      4353        10.7060          71.43          72.49           8.43
      4354        10.7080          82.94          79.93           9.13
      4355        10.7100          82.17          82.98           9.06
      4356        10.7120          79.50          86.83           8.93
      4357        10.7140          84.19          91.85           9.16
      4358        10.7160          91.56          98.61           9.54
      4359        10.7180         101.88         108.06          10.07
      4360        10.7200         116.68         121.67          10.80
      4361        10.7220         123.50         141.56          11.15
      4362        10.7240         151.22         170.29          12.38
      4363        10.7260         208.17         210.18          14.59
      4364        10.7280         261.69         260.78          16.31
      4365        10.7300         338.51         312.66          18.56
      4366        10.7320         372.99         341.70          19.42
      4367        10.7340         328.51         327.04          17.94
      4368        10.7360         300.03         280.39          17.06
      4369        10.7380         241.92         228.51          15.44
      4370        10.7400         188.55         185.68          13.49
      4371        10.7420         165.66         154.39          12.66
      4372        10.7440         151.26         132.85          12.26
      4373        10.7460         153.23         118.44          12.39
      4374        10.7480         134.48         108.87          11.59
      4375        10.7500         116.05         102.49          10.65
      4376        10.7520         107.61          98.17          10.25
      4377        10.7540         108.39          95.26          10.33
      4378        10.7560         116.25          93.36          10.74
      4379        10.7580         108.36          92.22          10.32
      4380        10.7600         117.47          91.70          10.78
      4381        10.7620         120.53          91.70          10.89
      4382        10.7640         111.85          92.18          10.51
      4383        10.7660         124.48          93.10          11.00
      4384        10.7680         115.66          94.46          10.76
      4385        10.7700         118.63          96.28          10.86
      4386        10.7720         125.64          98.59          11.14
      4387        10.7740         129.05         101.44          11.33
      4388        10.7760         123.76         104.93          11.01
      4389        10.7780         141.00         109.16          11.79
      4390        10.7800         134.32         114.27          11.51
      4391        10.7820         147.64         120.48          12.09
      4392        10.7840         142.30         128.04          11.80
      4393        10.7860         153.91         137.33          12.30
      4394        10.7880         184.29         148.86          13.60
      4395        10.7900         186.02         163.35          13.64
      4396        10.7920         188.50         181.90          13.63
      4397        10.7940         216.02         206.45          14.54
      4398        10.7960         231.42         239.41          15.06
      4399        10.7980         284.59         285.66          16.69
      4400        10.8000         340.99         352.44          18.28
      4401        10.8020         423.52         450.29          20.43
      4402        10.8040         512.12         592.59          22.33
      4403        10.8060         701.69         792.25          26.19
      4404        10.8080         993.52        1051.63          31.21
      4405        10.8100        1377.69        1333.69          36.71
      4406        10.8120        1891.24        1523.79          43.25
      4407        10.8140        1992.54        1492.49          44.57
      4408        10.8160        1651.23        1264.20          40.72
      4409        10.8180        1097.40         980.52          33.27
      4410        10.8200         743.99         734.94          27.42
      4411        10.8220         456.41         550.79          21.52
      4412        10.8240         388.70         421.02          19.86
      4413        10.8260         311.30         332.17          17.69
      4414        10.8280         238.97         271.40          15.48
      4415        10.8300         211.39         228.99          14.60
      4416        10.8320         185.44         198.44          13.61
      4417        10.8340         176.72         175.62          13.28
      4418        10.8360         158.16         158.05          12.61
      4419        10.8380         132.84         144.20          11.56
      4420        10.8400         132.10         132.19          11.52
      4421        10.8420         121.30         123.18          10.96
      4422        10.8440         104.05         115.75          10.11
      4423        10.8460          84.80         109.57           9.22
      4424        10.8480         100.49         104.39          10.09
      4425        10.8500          92.62         100.00           9.59
      4426        10.8520          87.56          96.26           9.33
      4427        10.8540          89.65          93.05           9.41
      4428        10.8560          78.15          90.30           8.78
      4429        10.8580          79.45          87.92           8.89
      4430        10.8600          80.63          85.86           8.92
      4431        10.8620          70.89          84.08           8.32
      4432        10.8640          77.23          82.54           8.72
      4433        10.8660          88.71          81.22           9.34
      4434        10.8680          70.94          80.11           8.31
      4435        10.8700          87.97          79.18           9.36
      4436        10.8720          83.69          78.44           9.07
      4437        10.8740          76.42          77.89           8.77
      4438        10.8760          69.98          77.53           8.38
      4439        10.8780          78.76          77.41           8.81
      4440        10.8800          75.75          77.56           8.65
      4441        10.8820          62.63          78.07           7.89
      4442        10.8840          54.03          79.08           7.29
      4443        10.8860          63.79          80.84           7.84
      4444        10.8880          75.51          83.69           8.64
      4445        10.8900          72.71          88.15           8.53
      4446        10.8920          89.27          94.74           9.43
      4447        10.8940          89.15         103.85           9.43
      4448        10.8960         104.03         114.92          10.15
      4449        10.8980         124.91         124.88          11.15
      4450        10.9000         109.86         128.06          10.44
      4451        10.9020         111.84         121.96          10.55
      4452        10.9040          97.64         110.96           9.75
      4453        10.9060          97.59         100.24           9.84
      4454        10.9080          81.45          91.83           8.93
      4455        10.9100          81.37          85.62           8.94
      4456        10.9120          82.85          80.93           8.95
      4457        10.9140          77.88          77.84           8.86
      4458        10.9160          73.56          75.08           8.60
      4459        10.9180          62.51          73.01           7.96
      4460        10.9200          54.07          66.52           7.30
      4461        10.9220          70.48          65.51           8.36
      4462        10.9240          64.10          64.76           7.94
      4463        10.9260          56.51          64.18           7.40
      4464        10.9280          63.08          63.74           7.98
      4465        10.9300          56.40          63.39           7.48
      4466        10.9320          61.47          63.12           7.79
      4467        10.9340          61.64          62.91           7.84
      4468        10.9360          64.00          62.74           7.98
      4469        10.9380          55.96          62.60           7.36
      4470        10.9400          73.49          62.50           8.62
      4471        10.9420          68.32          62.43           8.28
      4472        10.9440          75.65          62.37           8.73
      4473        10.9460          70.39          62.34           8.40
      4474        10.9480          63.33          62.32           7.87
      4475        10.9500          65.93          62.32           7.96
      4476        10.9520          67.28          62.34           8.14
      4477        10.9540          71.00          62.37           8.40
      4478        10.9560          63.08          62.41           7.92
      4479        10.9580          67.01          62.47           8.12
      4480        10.9600          69.77          62.54           8.32
      4481        10.9620          59.76          62.63           7.69
      4482        10.9640          57.96          62.73           7.54
      4483        10.9660          67.65          62.85           8.16
      4484        10.9680          57.78          62.98           7.55
      4485        10.9700          70.57          63.14           8.37
      4486        10.9720          59.28          63.32           7.66
      4487        10.9740          65.13          64.05           8.03
      4488        10.9760          70.67          64.30           8.37
      4489        10.9780          69.33          64.59           8.26
      4490        10.9800          76.61          64.93           8.72
      4491        10.9820          66.60          65.31           8.04
      4492        10.9840          72.12          65.76           8.49
      4493        10.9860          70.15          66.27           8.34
      4494        10.9880          64.80          66.87           8.01
      4495        10.9900          80.42          67.58           8.87
      4496        10.9920          80.66          68.42           8.90
      4497        10.9940          75.60          69.43           8.68
      4498        10.9960          78.94          70.66           8.85
      4499        10.9980          74.04          72.17           8.57
      4500        11.0000         100.14          74.06          10.04
      4501        11.0020          96.35          76.49           9.73
      4502        11.0040          91.88          79.68           9.40
      4503        11.0060         117.34          84.03          10.75
      4504        11.0080         112.39          89.95          10.45
      4505        11.0100         115.63          98.79          10.59
      4506        11.0120         120.72         111.61          10.79
      4507        11.0140         121.70         129.90          10.81
      4508        11.0160         168.53         154.80          12.77
      4509        11.0180         191.07         185.37          13.56
      4510        11.0200         206.00         214.72          14.05
      4511        11.0220         199.58         228.02          13.94
      4512        11.0240         180.78         215.65          13.44
      4513        11.0260         187.02         186.82          13.77
      4514        11.0280         170.79         156.40          13.24
      4515        11.0300         174.36         131.57          13.53
      4516        11.0320         162.64         113.39          13.01
      4517        11.0340         110.40         100.72          10.57
      4518        11.0360         133.04          92.11          11.70
      4519        11.0380         101.73          86.27          10.16
      4520        11.0400         108.43          82.25          10.50
      4521        11.0420          82.09          79.45           9.05
      4522        11.0440          90.45          77.47           9.50
      4523        11.0460          87.48          76.09           9.37
      4524        11.0480          86.34          75.17           9.33
      4525        11.0500          65.36          74.64           8.07
      4526        11.0520          70.01          74.45           8.33
      4527        11.0540          77.61          74.59           8.80
      4528        11.0560          82.79          75.07           9.14
      4529        11.0580          70.85          75.93           8.37
      4530        11.0600          67.93          77.25           8.23
      4531        11.0620          71.78          79.18           8.48
      4532        11.0640          74.46          81.93           8.63
      4533        11.0660          77.16          85.92           8.78
      4534        11.0680          75.03          91.75           8.62
      4535        11.0700          88.71         100.36           9.48
      4536        11.0720         101.55         112.96          10.15
      4537        11.0740         104.56         130.83          10.32
      4538        11.0760         127.40         154.68          11.29
      4539        11.0780         185.73         182.49          13.67
      4540        11.0800         197.12         205.77          13.99
      4541        11.0820         209.02         210.85          14.42
      4542        11.0840         166.12         193.82          12.70
      4543        11.0860         157.29         166.23          12.51
      4544        11.0880         115.73         139.88          10.63
      4545        11.0900         111.40         119.14          10.59
      4546        11.0920          91.57         104.12           9.51
      4547        11.0940         107.34          93.65          10.38
      4548        11.0960          76.19          86.43           8.60
      4549        11.0980          88.98          81.39           9.49
      4550        11.1000          68.56          77.79           8.22
      4551        11.1020          67.31          75.12           8.09
      4552        11.1040          65.02          73.08           8.00
      4553        11.1060          72.43          71.48           8.45
      4554        11.1080          67.03          70.20           8.10
      4555        11.1100          63.35          69.15           7.85
      4556        11.1120          66.51          68.29           8.20
      4557        11.1140          55.73          67.58           7.45
      4558        11.1160          80.21          66.98           9.02
      4559        11.1180          61.01          66.46           7.72
      4560        11.1200          52.99          66.03           7.28
      4561        11.1220          66.55          65.65           8.23
      4562        11.1240          71.43          65.32           8.54
      4563        11.1260          56.09          65.04           7.45
      4564        11.1280          65.76          64.79           8.07
      4565        11.1300          66.66          64.57           8.22
      4566        11.1320          58.98          63.83           7.68
      4567        11.1340          55.20          63.69           7.39
      4568        11.1360          53.86          63.55           7.29
      4569        11.1380          56.86          63.43           7.50
      4570        11.1400          53.53          63.33           7.27
      4571        11.1420          60.07          63.23           7.71
      4572        11.1440          49.81          63.15           7.00
      4573        11.1460          60.60          63.71           7.65
      4574        11.1480          72.86          63.66           8.45
      4575        11.1500          53.36          63.63           7.18
      4576        11.1520          64.79          63.60           8.01
      4577        11.1540          59.69          63.58           7.65
      4578        11.1560          56.93          63.57           7.43
      4579        11.1580          58.93          63.56           7.62
      4580        11.1600          56.56          63.56           7.52
      4581        11.1620          59.62          63.56           7.71
      4582        11.1640          50.75          63.58           7.00
      4583        11.1660          52.66          63.59           7.16
      4584        11.1680          64.55          63.61           8.07
      4585        11.1700          59.60          63.64           7.70
      4586        11.1720          57.61          63.68           7.48
      4587        11.1740          75.38          63.72           8.67
      4588        11.1760          71.48          63.76           8.47
      4589        11.1780          61.31          63.82           7.81
      4590        11.1800          65.30          63.88           8.07
      4591        11.1820          57.76          63.94           7.52
      4592        11.1840          58.04          64.02           7.51
      4593        11.1860          72.29          64.10           8.54
      4594        11.1880          68.84          64.20           8.32
      4595        11.1900          82.64          64.61           9.09
      4596        11.1920          52.98          64.25           7.13
      4597        11.1940          59.46          64.41           7.68
      4598        11.1960          72.38          64.58           8.46
      4599        11.1980          70.86          65.17           8.35
      4600        11.2000          60.26          65.40           7.69
      4601        11.2020          59.69          65.64           7.66
      4602        11.2040          67.65          65.91           8.19
      4603        11.2060          73.28          66.22           8.62
      4604        11.2080          61.94          66.55           7.88
      4605        11.2100          69.21          66.93           8.27
      4606        11.2120          84.71          67.36           9.10
      4607        11.2140          83.06          67.84           9.05
      4608        11.2160          77.07          68.40           8.73
      4609        11.2180          73.90          69.04           8.49
      4610        11.2200          68.91          69.79           8.24
      4611        11.2220          72.42          70.66           8.51
      4612        11.2240          69.72          71.70           8.33
      4613        11.2260          75.74          72.95           8.67
      4614        11.2280          86.55          74.47           9.33
      4615        11.2300          71.52          76.36           8.42
      4616        11.2320          75.53          78.74           8.66
      4617        11.2340         101.71          81.80          10.06
      4618        11.2360         105.03          86.30          10.23
      4619        11.2380          94.04          91.79           9.62
      4620        11.2400          78.78          99.33           8.79
      4621        11.2420         110.54         109.69          10.43
      4622        11.2440         126.87         123.89          11.16
      4623        11.2460         125.68         143.30          11.07
      4624        11.2480         141.00         169.40          11.77
      4625        11.2500         153.57         201.58          12.23
      4626        11.2520         213.10         232.92          14.46
      4627        11.2540         267.94         248.18          16.29
      4628        11.2560         264.54         236.46          16.19
      4629        11.2580         226.36         206.27          14.99
      4630        11.2600         179.51         173.43          13.45
      4631        11.2620         139.34         146.25          11.77
      4632        11.2640         123.49         126.20          11.19
      4633        11.2660         120.93         112.24          11.05
      4634        11.2680         116.39         102.86          10.81
      4635        11.2700          91.89          96.69           9.50
      4636        11.2720          81.67          92.73           8.94
      4637        11.2740         103.29          90.32          10.08
      4638        11.2760          99.62          89.34           9.85
      4639        11.2780         102.70          89.36          10.12
      4640        11.2800         107.83          90.00          10.36
      4641        11.2820         110.98          91.63          10.54
      4642        11.2840         105.25          94.49          10.13
      4643        11.2860         123.47          98.97          10.96
      4644        11.2880         120.64         105.73          10.96
      4645        11.2900         131.31         115.69          11.40
      4646        11.2920         140.03         129.96          11.75
      4647        11.2940         177.67         149.53          13.29
      4648        11.2960         197.56         174.10          13.91
      4649        11.2980         228.58         199.91          15.05
      4650        11.3000         282.58         221.51          16.75
      4651        11.3020         272.30         232.38          16.37
      4652        11.3040         253.05         237.02          15.76
      4653        11.3060         269.44         233.81          16.31
      4654        11.3080         232.16         217.32          15.23
      4655        11.3100         212.79         190.77          14.64
      4656        11.3120         177.69         163.58          13.42
      4657        11.3140         145.52         141.38          12.09
      4658        11.3160         125.43         125.12          11.09
      4659        11.3180         128.70         113.90          11.24
      4660        11.3200         112.94         106.50          10.61
      4661        11.3220         119.52         101.90          10.92
      4662        11.3240          96.33          99.37           9.75
      4663        11.3260         126.53          98.50          11.28
      4664        11.3280         120.57          99.19          10.97
      4665        11.3300         110.81         101.58          10.49
      4666        11.3320         122.79         106.12          11.06
      4667        11.3340         115.47         113.57          10.68
      4668        11.3360         134.76         124.88          11.59
      4669        11.3380         138.73         141.03          11.67
      4670        11.3400         167.00         162.17          12.72
      4671        11.3420         195.56         185.54          13.81
      4672        11.3440         168.34         202.59          12.82
      4673        11.3460         181.32         202.68          13.38
      4674        11.3480         183.21         185.86          13.54
      4675        11.3500         191.07         162.82          13.99
      4676        11.3520         175.92         142.06          13.39
      4677        11.3540         140.56         126.28          11.97
      4678        11.3560         129.22         115.33          11.50
      4679        11.3580         113.29         108.23          10.75
      4680        11.3600         100.60         103.98          10.02
      4681        11.3620         104.82         101.83          10.15
      4682        11.3640         124.13         101.30          11.28
      4683        11.3660         104.82         101.53          10.23
      4684        11.3680         104.77         103.74          10.14
      4685        11.3700         110.67         107.50          10.51
      4686        11.3720         111.21         113.30          10.46
      4687        11.3740         141.90         121.90          11.84
      4688        11.3760         144.04         134.43          11.87
      4689        11.3780         147.58         152.28          12.03
      4690        11.3800         190.91         176.79          13.79
      4691        11.3820         206.45         208.03          14.26
      4692        11.3840         246.38         241.97          15.56
      4693        11.3860         298.12         267.07          17.18
      4694        11.3880         317.79         270.68          17.84
      4695        11.3900         272.24         254.93          16.47
      4696        11.3920         241.28         234.79          15.52
      4697        11.3940         206.77         221.60          14.31
      4698        11.3960         216.35         220.70          14.70
      4699        11.3980         205.53         234.54          14.24
      4700        11.4000         225.95         265.33          14.93
      4701        11.4020         289.42         315.52          16.98
      4702        11.4040         349.02         386.28          18.64
      4703        11.4060         471.74         471.36          21.72
      4704        11.4080         547.33         545.54          23.37
      4705        11.4100         624.27         566.26          24.97
      4706        11.4120         529.96         516.09          22.79
      4707        11.4140         422.58         428.01          20.48
      4708        11.4160         316.31         340.23          17.67
      4709        11.4180         257.61         269.08          16.01
      4710        11.4200         205.20         216.86          14.25
      4711        11.4220         167.43         179.88          12.96
      4712        11.4240         136.09         154.03          11.59
      4713        11.4260         130.76         135.84          11.35
      4714        11.4280         112.67         122.77          10.52
      4715        11.4300         108.80         113.07          10.41
      4716        11.4320         116.17         105.65          10.72
      4717        11.4340          80.65          99.83           8.94
      4718        11.4360          85.14          95.89           9.20
      4719        11.4380          97.78          92.12           9.91
      4720        11.4400         104.68          89.02          10.23
      4721        11.4420          88.36          86.44           9.41
      4722        11.4440          67.78          84.28           8.14
      4723        11.4460          94.84          82.45           9.77
      4724        11.4480          87.42          80.91           9.30
      4725        11.4500          68.32          79.58           8.22
      4726        11.4520          75.04          78.46           8.66
      4727        11.4540          79.83          77.49           8.88
      4728        11.4560          81.15          76.23           8.91
      4729        11.4580          68.50          75.53           8.16
      4730        11.4600          78.12          74.95           8.81
      4731        11.4620          83.35          74.46           9.12
      4732        11.4640          71.67          74.06           8.44
      4733        11.4660          66.85          73.74           8.18
      4734        11.4680          77.38          73.51           8.82
      4735        11.4700          86.04          73.35           9.28
      4736        11.4720          57.22          73.28           7.44
      4737        11.4740          66.88          73.29           8.17
      4738        11.4760          66.53          73.41           8.10
      4739        11.4780          80.67          73.63           9.05
      4740        11.4800          80.13          74.00           8.92
      4741        11.4820          72.89          74.53           8.40
      4742        11.4840          68.61          75.29           8.15
      4743        11.4860          78.00          76.36           8.76
      4744        11.4880          81.87          77.89           8.90
      4745        11.4900          98.20          80.09           9.81
      4746        11.4920          95.49          83.29           9.53
      4747        11.4940         106.26          87.87          10.30
      4748        11.4960         109.49          94.26          10.49
      4749        11.4980         105.64         102.40          10.25
      4750        11.5000         103.69         111.87          10.01
      4751        11.5020         112.72         120.21          10.43
      4752        11.5040         107.02         122.64          10.09
      4753        11.5060         111.49         117.67          10.50
      4754        11.5080         136.06         108.84          11.67
      4755        11.5100         134.90         100.22          11.57
      4756        11.5120         129.45          93.49          11.46
      4757        11.5140         103.92          88.83          10.16
      4758        11.5160          99.16          85.93           9.94
      4759        11.5180          81.61          84.41           9.07
      4760        11.5200          93.76          83.95           9.73
      4761        11.5220          86.96          82.73           9.27
      4762        11.5240          91.05          84.02           9.47
      4763        11.5260          97.92          86.17           9.89
      4764        11.5280         104.29          89.38          10.18
      4765        11.5300          94.90          94.03           9.64
      4766        11.5320         104.43         100.74          10.18
      4767        11.5340         107.29         110.46          10.27
      4768        11.5360         114.28         124.46          10.58
      4769        11.5380         131.34         144.25          11.37
      4770        11.5400         166.08         171.09          12.69
      4771        11.5420         200.63         204.99          13.95
      4772        11.5440         198.64         241.61          13.81
      4773        11.5460         251.68         267.69          15.65
      4774        11.5480         246.95         267.23          15.52
      4775        11.5500         270.72         239.87          16.48
      4776        11.5520         224.25         202.31          15.14
      4777        11.5540         205.40         167.88          14.52
      4778        11.5560         163.28         141.02          12.96
      4779        11.5580         131.09         121.47          11.53
      4780        11.5600         115.11         107.67          10.70
      4781        11.5620         104.55          98.04          10.22
      4782        11.5640          94.03          91.23           9.67
      4783        11.5660          76.34          86.30           8.69
      4784        11.5680          86.95          82.63           9.32
      4785        11.5700          75.02          79.80           8.64
      4786        11.5720          82.94          77.58           9.07
      4787        11.5740          70.98          75.80           8.36
      4788        11.5760          64.71          74.35           8.00
      4789        11.5780          67.08          73.16           8.22
      4790        11.5800          73.27          72.16           8.58
      4791        11.5820          63.01          71.33           7.83
      4792        11.5840          81.24          70.66           9.00
      4793        11.5860          71.44          70.07           8.45
      4794        11.5880          54.46          69.56           7.26
      4795        11.5900          70.17          69.12           8.27
      4796        11.5920          87.75          68.75           9.36
      4797        11.5940          70.86          68.43           8.38
      4798        11.5960          65.28          68.15           7.88
      4799        11.5980          62.66          67.92           7.92
      4800        11.6000          64.26          67.72           8.03
      4801        11.6020          68.21          67.55           8.23
      4802        11.6040          78.54          67.92           8.86
      4803        11.6060          63.85          67.83           7.91
      4804        11.6080          68.00          67.76           8.17
      4805        11.6100          71.04          67.73           8.36
      4806        11.6120          65.49          67.71           8.03
      4807        11.6140          68.79          67.73           8.24
      4808        11.6160          69.22          67.59           8.25
      4809        11.6180          70.39          67.67           8.31
      4810        11.6200          68.97          67.78           8.24
      4811        11.6220          69.46          67.92           8.36
      4812        11.6240          68.21          68.11           8.27
      4813        11.6260          70.89          68.34           8.41
      4814        11.6280          58.09          68.63           7.58
      4815        11.6300          74.75          68.99           8.64
      4816        11.6320          62.35          69.43           7.76
      4817        11.6340          68.96          69.98           8.28
      4818        11.6360          70.19          70.66           8.33
      4819        11.6380          76.09          71.51           8.65
      4820        11.6400          85.33          72.61           9.17
      4821        11.6420          69.52          74.04           8.25
      4822        11.6440          84.16          75.97           9.17
      4823        11.6460          80.53          78.64           8.80
      4824        11.6480          78.75          82.40           8.71
      4825        11.6500          98.86          87.77           9.80
      4826        11.6520          93.01          95.33           9.53
      4827        11.6540         103.78         105.60          10.14
      4828        11.6560         101.14         118.56           9.96
      4829        11.6580          96.56         132.27           9.73
      4830        11.6600         102.77         140.84          10.02
      4831        11.6620         113.12         139.95          10.63
      4832        11.6640         102.48         129.68          10.09
      4833        11.6660         113.20         116.15          10.67
      4834        11.6680         114.35         104.00          10.79
      4835        11.6700         105.42          94.66          10.29
      4836        11.6720          88.17          87.99           9.32
      4837        11.6740          88.45          83.45           9.46
      4838        11.6760          91.54          80.48           9.66
      4839        11.6780          77.57          78.62           8.85
      4840        11.6800          80.79          77.58           9.05
      4841        11.6820          79.15          77.18           8.91
      4842        11.6840          76.66          77.36           8.80
      4843        11.6860          83.44          78.13           9.11
      4844        11.6880          77.63          79.54           8.70
      4845        11.6900          86.23          81.65           9.21
      4846        11.6920          82.44          84.42           8.99
      4847        11.6940          81.39          87.48           8.99
      4848        11.6960         102.11          90.07          10.13
      4849        11.6980          98.41          91.78           9.94
      4850        11.7000          82.34          93.36           9.06
      4851        11.7020          91.43          96.13           9.61
      4852        11.7040          85.18         101.27           9.15
      4853        11.7060         106.77         109.77          10.24
      4854        11.7080         111.59         122.72          10.50
      4855        11.7100         146.13         141.07          12.10
      4856        11.7120         177.46         164.84          13.31
      4857        11.7140         218.52         190.79          14.80
      4858        11.7160         223.38         209.52          14.91
      4859        11.7180         196.33         209.53          13.82
      4860        11.7200         184.76         190.63          13.44
      4861        11.7220         151.29         164.14          12.04
      4862        11.7240         144.38         139.56          11.90
      4863        11.7260         116.40         120.20          10.65
      4864        11.7280          98.79         106.00           9.86
      4865        11.7300          92.10          95.92           9.49
      4866        11.7320          93.32          88.83           9.63
      4867        11.7340          89.51          83.79           9.41
      4868        11.7360          97.22          80.13           9.81
      4869        11.7380          95.06          77.39           9.72
      4870        11.7400          82.77          75.28           9.15
      4871        11.7420          76.38          73.61           8.78
      4872        11.7440          83.61          72.26           9.10
      4873        11.7460          91.95          71.16           9.53
      4874        11.7480          67.89          70.25           8.21
      4875        11.7500          72.01          69.49           8.41
      4876        11.7520          82.35          68.84           9.03
      4877        11.7540          74.68          68.29           8.63
      4878        11.7560          54.03          67.81           7.36
      4879        11.7580          62.90          67.39           7.89
      4880        11.7600          68.02          67.03           8.13
      4881        11.7620          69.39          66.71           8.27
      4882        11.7640          56.16          66.43           7.39
      4883        11.7660          56.57          66.18           7.46
      4884        11.7680          68.82          65.96           8.32
      4885        11.7700          68.66          65.76           8.30
      4886        11.7720          65.71          65.58           8.09
      4887        11.7740          65.31          65.41           8.04
      4888        11.7760          70.64          65.01           8.35
      4889        11.7780          62.14          64.88           7.83
      4890        11.7800          63.73          64.77           7.92
      4891        11.7820          71.11          64.66           8.42
      4892        11.7840          52.81          64.56           7.18
      4893        11.7860          43.23          64.47           6.50
      4894        11.7880          51.93          64.39           7.15
      4895        11.7900          68.18          64.31           8.20
      4896        11.7920          65.39          64.24           8.14
      4897        11.7940          53.83          64.17           7.35
      4898        11.7960          61.16          64.11           7.83
      4899        11.7980          58.60          64.05           7.60
      4900        11.8000          70.40          64.00           8.41
      4901        11.8020          59.92          63.94           7.70
      4902        11.8040          70.30          63.90           8.41
      4903        11.8060          59.51          63.85           7.57
      4904        11.8080          57.91          63.81           7.57
      4905        11.8100          68.66          63.73           8.24
      4906        11.8120          79.26          63.69           8.90
      4907        11.8140          51.19          63.65           7.06
      4908        11.8160          40.97          63.62           6.39
      4909        11.8180          61.95          63.59           7.89
      4910        11.8200          74.88          63.56           8.67
      4911        11.8220          64.47          63.53           8.03
      4912        11.8240          51.80          63.50           7.22
      4913        11.8260          54.17          63.47           7.38
      4914        11.8280          47.79          63.44           6.83
      4915        11.8300          60.80          63.42           7.78
      4916        11.8320          53.17          62.90           7.23
      4917        11.8340          60.54          62.89           7.72
      4918        11.8360          50.86          62.88           7.04
      4919        11.8380          58.63          62.88           7.65
      4920        11.8400          57.47          62.87           7.48
      4921        11.8420          60.22          62.86           7.74
      4922        11.8440          55.62          62.85           7.46
      4923        11.8460          52.41          62.85           7.17
      4924        11.8480          59.41          62.84           7.64
      4925        11.8500          60.66          62.83           7.70
      4926        11.8520          60.51          63.23           7.67
      4927        11.8540          51.44          63.23           7.10
      4928        11.8560          56.70          63.24           7.49
      4929        11.8580          61.52          63.25           7.80
      4930        11.8600          57.25          63.26           7.52
      4931        11.8620          55.46          63.27           7.39
      4932        11.8640          60.30          63.28           7.74
      4933        11.8660          54.47          63.29           7.29
      4934        11.8680          49.19          63.31           6.91
      4935        11.8700          48.86          63.32           7.03
      4936        11.8720          53.64          63.34           7.28
      4937        11.8740          70.87          63.36           8.42
      4938        11.8760          69.40          63.37           8.30
      4939        11.8780          54.59          63.40           7.35
      4940        11.8800          57.09          63.42           7.54
      4941        11.8820          64.46          63.44           8.05
      4942        11.8840          67.50          63.47           8.15
      4943        11.8860          60.22          63.50           7.59
      4944        11.8880          67.12          63.54           8.10
      4945        11.8900          61.85          63.57           7.80
      4946        11.8920          68.09          63.61           8.24
      4947        11.8940          53.64          63.66           7.18
      4948        11.8960          64.33          63.70           7.92
      4949        11.8980          53.00          63.76           7.18
      4950        11.9000          62.85          63.82           7.85
      4951        11.9020          62.20          63.88           7.77
      4952        11.9040          66.20          63.95           8.16
      4953        11.9060          56.68          64.03           7.49
      4954        11.9080          71.74          64.12           8.52
      4955        11.9100          55.58          64.22           7.37
      4956        11.9120          62.49          64.33           7.89
      4957        11.9140          69.47          64.46           8.32
      4958        11.9160          67.13          64.59           8.13
      4959        11.9180          67.70          64.75           8.15
      4960        11.9200          49.43          65.49           6.94
      4961        11.9220          50.07          65.71           6.97
      4962        11.9240          66.16          65.97           8.12
      4963        11.9260          67.65          66.26           8.24
      4964        11.9280          64.98          66.59           8.05
      4965        11.9300          68.23          66.98           8.25
      4966        11.9320          63.60          67.42           7.97
      4967        11.9340          65.72          67.95           8.05
      4968        11.9360          64.61          68.57           8.01
      4969        11.9380          89.80          69.32           9.54
      4970        11.9400          72.83          70.22           8.42
      4971        11.9420          71.22          71.32           8.41
      4972        11.9440          84.09          72.70           9.17
      4973        11.9460          78.01          74.44           8.76
      4974        11.9480          67.54          76.71           8.18
      4975        11.9500          72.02          79.75           8.44
      4976        11.9520          86.57          83.93           9.22
      4977        11.9540          86.30          90.19           9.25
      4978        11.9560          74.69          98.50           8.56
      4979        11.9580          98.98         110.08           9.87
      4980        11.9600         104.44         125.67          10.04
      4981        11.9620         115.94         145.05          10.56
      4982        11.9640         151.40         165.18          12.13
      4983        11.9660         134.60         178.36          11.40
      4984        11.9680         150.75         176.57          12.09
      4985        11.9700         150.52         161.11          12.15
      4986        11.9720         169.11         140.85          13.02
      4987        11.9740         143.04         122.44          12.03
      4988        11.9760         135.47         108.03          11.73
      4989        11.9780         126.69          97.52          11.36
      4990        11.9800         121.76          90.09          11.11
      4991        11.9820          83.87          84.91           9.18
      4992        11.9840          95.63          81.30           9.87
      4993        11.9860          87.06          78.76           9.33
      4994        11.9880          83.49          76.95           9.21
      4995        11.9900          76.11          75.66           8.72
      4996        11.9920          88.52          74.76           9.42
      4997        11.9940          59.42          74.15           7.63
      4998        11.9960          75.60          73.80           8.69
      4999        11.9980          79.40          73.67           8.85
      5000        12.0000          73.80          73.74           7.85
      5001        12.0020          87.96          74.01           8.53
      5002        12.0040          81.07          74.50           8.20
      5003        12.0060          76.23          75.22           7.98
      5004        12.0080          82.08          76.22           8.26
      5005        12.0100          85.64          77.54           8.47
      5006        12.0120          84.45          79.28           8.39
      5007        12.0140          91.00          81.58           8.70
      5008        12.0160          82.87          84.66           8.29
      5009        12.0180          80.76          88.86           8.16
      5010        12.0200          74.06          94.71           7.86
      5011        12.0220          97.23         102.96           8.98
      5012        12.0240         122.93         114.63          10.07
      5013        12.0260         127.29         130.89          10.27
      5014        12.0280         139.65         152.66          10.75
      5015        12.0300         163.52         179.52          11.59
      5016        12.0320         223.41         206.97          13.56
      5017        12.0340         250.63         224.19          14.47
      5018        12.0360         238.10         220.83          14.14
      5019        12.0380         186.80         199.37          12.54
      5020        12.0400         150.39         172.05          11.29
      5021        12.0420         141.83         147.62          10.89
      5022        12.0440         114.50         128.86           9.78
      5023        12.0460         115.33         115.57           9.81
      5024        12.0480         108.24         106.74           9.49
      5025        12.0500          87.57         101.40           8.55
      5026        12.0520          82.37          98.81           8.28
      5027        12.0540          84.88          98.62           8.43
      5028        12.0560          94.15         100.86           8.87
      5029        12.0580          93.24         105.87           8.85
      5030        12.0600         101.94         114.21           9.24
      5031        12.0620         101.59         126.45           9.20
      5032        12.0640         133.06         142.49          10.49
      5033        12.0660         173.70         159.98          12.04
      5034        12.0680         198.11         172.47          12.86
      5035        12.0700         192.89         172.20          12.71
      5036        12.0720         178.65         158.86          12.21
      5037        12.0740         138.82         139.96          10.78
      5038        12.0760         125.17         122.15          10.21
      5039        12.0780          96.03         107.89           8.93
      5040        12.0800          92.09          97.27           8.71
      5041        12.0820          90.75          89.60           8.68
      5042        12.0840          83.22          83.72           8.33
      5043        12.0860          85.71          79.78           8.41
      5044        12.0880          70.10          76.88           7.64
      5045        12.0900          70.48          74.69           7.65
      5046        12.0920          76.80          72.99           8.00
      5047        12.0940          74.79          71.64           7.88
      5048        12.0960          67.65          70.55           7.52
      5049        12.0980          71.85          69.66           7.77
      5050        12.1000          62.03          68.92           7.20
      5051        12.1020          64.73          68.35           7.32
      5052        12.1040          65.74          67.84           7.36
      5053        12.1060          66.15          67.41           7.42
      5054        12.1080          59.67          67.05           7.06
      5055        12.1100          64.92          66.75           7.33
      5056        12.1120          65.94          66.76           7.44
      5057        12.1140          65.65          66.58           7.39
      5058        12.1160          56.63          66.44           6.90
      5059        12.1180          64.97          66.34           7.37
      5060        12.1200          67.39          66.30           7.50
      5061        12.1220          62.37          66.30           7.22
      5062        12.1240          58.71          66.35           7.01
      5063        12.1260          58.65          66.47           6.99
      5064        12.1280          65.50          66.66           7.37
      5065        12.1300          65.56          66.95           7.37
      5066        12.1320          66.52          67.36           7.45
      5067        12.1340          65.47          67.94           7.39
      5068        12.1360          84.96          68.77           8.43
      5069        12.1380          79.90          69.96           8.15
      5070        12.1400          61.61          71.67           7.17
      5071        12.1420          68.80          74.10           7.59
      5072        12.1440          68.19          77.48           7.53
      5073        12.1460          79.59          82.25           8.12
      5074        12.1480          88.34          87.57           8.54
      5075        12.1500          93.95          92.58           8.77
      5076        12.1520          97.32          94.49           9.04
      5077        12.1540          81.90          92.89           8.31
      5078        12.1560          77.96          88.38           8.10
      5079        12.1580          85.75          83.13           8.43
      5080        12.1600          67.31          78.47           7.48
      5081        12.1620          79.75          74.81           8.13
      5082        12.1640          66.85          72.11           7.47
      5083        12.1660          75.31          70.20           7.93
      5084        12.1680          80.12          68.86           8.16
      5085        12.1700          79.18          67.92           8.09
      5086        12.1720          69.57          67.27           7.60
      5087        12.1740          76.34          66.82           7.96
      5088        12.1760          73.82          66.50           7.82
      5089        12.1780          61.07          66.30           7.14
      5090        12.1800          67.15          66.18           7.47
      5091        12.1820          62.58          66.13           7.23
      5092        12.1840          65.46          66.16           7.39
      5093        12.1860          64.75          65.88           7.34
      5094        12.1880          67.69          66.04           7.52
      5095        12.1900          69.41          66.27           7.60
      5096        12.1920          67.81          66.57           7.53
      5097        12.1940          66.25          66.96           7.45
      5098        12.1960          77.85          67.45           8.01
      5099        12.1980          57.56          68.07           6.94
      5100        12.2000          71.02          68.85           7.67
      5101        12.2020          68.07          69.85           7.47
      5102        12.2040          65.01          71.16           7.38
      5103        12.2060          75.79          72.88           7.94
      5104        12.2080          65.05          75.17           7.36
      5105        12.2100          71.72          78.26           7.71
      5106        12.2120          86.95          82.39           8.50
      5107        12.2140          90.81          87.75           8.69
      5108        12.2160          97.20          94.29           8.97
      5109        12.2180         107.70         101.59           9.48
      5110        12.2200         114.09         109.42           9.73
      5111        12.2220         120.59         118.47          10.02
      5112        12.2240         140.25         129.02          10.80
      5113        12.2260         160.59         138.72          11.58
      5114        12.2280         162.72         142.36          11.65
      5115        12.2300         163.88         136.73          11.67
      5116        12.2320         150.15         124.90          11.19
      5117        12.2340         115.99         112.24           9.79
      5118        12.2360          92.19         101.67           8.72
      5119        12.2380         104.41          93.86           9.35
      5120        12.2400          94.08          88.55           8.86
      5121        12.2420          86.68          85.26           8.52
      5122        12.2440          91.16          83.61           8.69
      5123        12.2460          78.64          83.35           8.09
      5124        12.2480          93.03          84.44           8.78
      5125        12.2500         102.74          87.05           9.20
      5126        12.2520         104.56          91.53           9.27
      5127        12.2540         121.36          98.46          10.00
      5128        12.2560         142.63         108.26          10.85
      5129        12.2580         148.00         121.14          11.02
      5130        12.2600         167.12         135.83          11.71
      5131        12.2620         170.00         148.05          11.88
      5132        12.2640         160.58         151.26          11.62
      5133        12.2660         144.18         143.11          11.02
      5134        12.2680         122.00         128.49          10.13
      5135        12.2700         109.70         113.39           9.60
      5136        12.2720          99.37         100.92           9.11
      5137        12.2740          82.32          91.45           8.29
      5138        12.2760          77.40          84.54           8.03
      5139        12.2780          81.40          79.59           8.24
      5140        12.2800          73.38          76.03           7.84
      5141        12.2820          79.35          73.43           8.14
      5142        12.2840          56.98          71.49           6.89
      5143        12.2860          58.17          70.00           6.91
      5144        12.2880          76.56          68.82           8.01
      5145        12.2900          70.82          67.87           7.67
      5146        12.2920          65.11          67.12           7.34
      5147        12.2940          70.52          66.48           7.66
      5148        12.2960          69.08          65.94           7.58
      5149        12.2980          67.14          65.48           7.49
      5150        12.3000          65.14          65.09           7.35
      5151        12.3020          87.01          64.76           8.52
      5152        12.3040          79.48          64.47           8.14
      5153        12.3060          76.22          64.22           7.95
      5154        12.3080          85.27          64.01           8.43
      5155        12.3100          72.95          63.82           7.80
      5156        12.3120          75.29          63.65           7.92
      5157        12.3140          73.49          63.50           7.82
      5158        12.3160          65.96          63.38           7.43
      5159        12.3180          67.42          63.26           7.50
      5160        12.3200          62.15          63.17           7.23
      5161        12.3220          64.13          63.08           7.32
      5162        12.3240          57.27          63.01           6.93
      5163        12.3260          69.23          62.96           7.62
      5164        12.3280          62.36          62.91           7.24
      5165        12.3300          66.94          62.88           7.47
      5166        12.3320          75.14          62.93           7.91
      5167        12.3340          71.98          62.93           7.76
      5168        12.3360          65.71          62.89           7.40
      5169        12.3380          57.35          62.92           6.91
      5170        12.3400          58.92          62.96           7.00
      5171        12.3420          64.94          63.03           7.36
      5172        12.3440          60.67          63.12           7.11
      5173        12.3460          65.14          62.99           7.36
      5174        12.3480          66.05          63.25           7.41
      5175        12.3500          69.57          63.49           7.59
      5176        12.3520          65.61          63.79           7.35
      5177        12.3540          58.08          64.21           6.95
      5178        12.3560          66.00          64.79           7.42
      5179        12.3580          57.03          65.59           6.90
      5180        12.3600          70.04          66.73           7.61
      5181        12.3620          78.43          68.30           8.06
      5182        12.3640          73.82          70.44           7.81
      5183        12.3660          69.60          73.14           7.63
      5184        12.3680          73.86          76.14           7.86
      5185        12.3700          80.69          78.52           8.20
      5186        12.3720          87.51          79.03           8.50
      5187        12.3740          73.47          77.35           7.80
      5188        12.3760          75.88          74.51           7.96
      5189        12.3780          71.25          71.66           7.68
      5190        12.3800          69.40          69.32           7.64
      5191        12.3820          65.23          67.27           7.41
      5192        12.3840          70.50          66.04           7.67
      5193        12.3860          65.18          65.19           7.35
      5194        12.3880          69.99          64.63           7.59
      5195        12.3900          75.18          64.28           7.95
      5196        12.3920          76.70          64.09           8.02
      5197        12.3940          67.78          64.04           7.54
      5198        12.3960          75.86          64.13           7.94
      5199        12.3980          71.93          64.37           7.74
      5200        12.4000          77.71          64.79           8.07
      5201        12.4020          72.05          65.44           7.72
      5202        12.4040          85.58          66.35           8.36
      5203        12.4060          83.49          67.48           8.36
      5204        12.4080          81.52          68.62           8.23
      5205        12.4100          74.39          69.32           7.84
      5206        12.4120          75.32          69.17           7.90
      5207        12.4140          79.29          68.29           8.13
      5208        12.4160          72.64          67.18           7.78
      5209        12.4180          78.81          66.20           8.13
      5210        12.4200          79.20          65.48           8.08
      5211        12.4220          58.58          65.01           6.96
      5212        12.4240          66.75          64.76           7.44
      5213        12.4260          70.94          64.69           7.68
      5214        12.4280          69.83          64.77           7.62
      5215        12.4300          69.69          65.00           7.61
      5216        12.4320          65.39          65.39           7.38
      5217        12.4340          67.91          65.97           7.53
      5218        12.4360          63.87          66.82           7.27
      5219        12.4380          77.29          68.02           8.00
      5220        12.4400          66.25          69.71           7.43
      5221        12.4420          67.56          72.04           7.51
      5222        12.4440          72.48          75.15           7.78
      5223        12.4460          86.45          79.01           8.46
      5224        12.4480          77.23          83.13           8.01
      5225        12.4500          75.86          86.25           7.98
      5226        12.4520          77.50          87.05           8.06
      5227        12.4540          90.87          85.73           8.74
      5228        12.4560          93.82          83.90           8.81
      5229        12.4580          72.74          82.99           7.77
      5230        12.4600          73.72          83.57           7.87
      5231        12.4620          79.47          85.56           8.12
      5232        12.4640          90.71          88.11           8.68
      5233        12.4660          97.81          89.49           9.04
      5234        12.4680          93.45          88.08           8.82
      5235        12.4700          88.31          84.21           8.55
      5236        12.4720          83.46          79.56           8.29
      5237        12.4740          66.42          75.37           7.45
      5238        12.4760          62.83          72.05           7.25
      5239        12.4780          60.11          69.56           7.09
      5240        12.4800          70.65          67.92           7.67
      5241        12.4820          74.75          66.60           7.89
      5242        12.4840          71.58          65.64           7.72
      5243        12.4860          65.60          64.94           7.38
      5244        12.4880          55.24          64.39           6.77
      5245        12.4900          56.11          63.96           6.82
      5246        12.4920          60.33          63.56           7.08
      5247        12.4940          60.93          63.28           7.14
      5248        12.4960          59.71          63.05           7.04
      5249        12.4980          68.62          62.86           7.58
      5250        12.5000          73.94          62.71           7.84
      5251        12.5020          68.28          62.57           7.55
      5252        12.5040          79.36          62.46           8.12
      5253        12.5060          66.92          62.37           7.44
      5254        12.5080          53.29          62.29           6.67
      5255        12.5100          59.15          62.22           7.01
      5256        12.5120          62.94          62.17           7.22
      5257        12.5140          61.67          62.12           7.16
      5258        12.5160          61.62          62.08           7.12
      5259        12.5180          58.42          62.05           7.00
      5260        12.5200          65.69          62.02           7.38
      5261        12.5220          50.17          62.01           6.46
      5262        12.5240          58.86          61.99           7.03
      5263        12.5260          60.17          61.98           7.10
      5264        12.5280          57.31          61.98           6.92
      5265        12.5300          66.34          61.96           7.42
      5266        12.5320          58.95          61.97           7.03
      5267        12.5340          58.60          61.99           6.97
      5268        12.5360          72.15          62.08           7.76
      5269        12.5380          71.22          62.11           7.71
      5270        12.5400          64.59          62.14           7.35
      5271        12.5420          61.21          62.18           7.14
      5272        12.5440          63.88          62.23           7.28
      5273        12.5460          62.08          62.28           7.20
      5274        12.5480          55.18          62.36           6.80
      5275        12.5500          70.62          62.43           7.65
      5276        12.5520          78.43          62.52           8.12
      5277        12.5540          63.90          62.62           7.34
      5278        12.5560          72.91          62.73           7.82
      5279        12.5580          72.98          62.86           7.82
      5280        12.5600          67.54          63.01           7.50
      5281        12.5620          61.35          63.19           7.13
      5282        12.5640          70.31          63.40           7.63
      5283        12.5660          81.56          63.64           8.22
      5284        12.5680          63.82          63.93           7.30
      5285        12.5700          68.26          64.27           7.54
      5286        12.5720          66.03          64.62           7.45
      5287        12.5740          65.94          65.13           7.43
      5288        12.5760          72.39          65.76           7.77
      5289        12.5780          76.19          66.57           7.96
      5290        12.5800          75.14          67.61           7.88
      5291        12.5820          75.23          69.24           7.88
      5292        12.5840          72.11          71.13           7.71
      5293        12.5860          70.83          73.74           7.70
      5294        12.5880          69.12          77.27           7.58
      5295        12.5900          75.93          82.22           7.92
      5296        12.5920          81.55          88.76           8.21
      5297        12.5940          84.26          96.81           8.35
      5298        12.5960         104.81         105.21           9.33
      5299        12.5980         104.20         111.14           9.30
      5300        12.6000         106.29         111.62           9.42
      5301        12.6020         107.76         106.87           9.48
      5302        12.6040          88.18          99.80           8.61
      5303        12.6060          91.41          92.64           8.73
      5304        12.6080          87.25          86.21           8.53
      5305        12.6100          69.69          80.83           7.64
      5306        12.6120          76.39          76.63           8.00
      5307        12.6140          70.64          73.52           7.69
      5308        12.6160          65.72          71.26           7.41
      5309        12.6180          68.65          69.64           7.59
      5310        12.6200          69.66          68.47           7.66
      5311        12.6220          67.56          67.64           7.52
      5312        12.6240          65.42          67.04           7.42
      5313        12.6260          73.99          66.62           7.85
      5314        12.6280          65.14          66.35           7.37
      5315        12.6300          74.34          66.20           7.87
      5316        12.6320          74.82          66.17           7.91
      5317        12.6340          68.35          66.26           7.56
      5318        12.6360          67.10          66.48           7.51
      5319        12.6380          75.29          67.03           7.91
      5320        12.6400          73.17          67.63           7.82
      5321        12.6420          80.64          68.53           8.19
      5322        12.6440          71.80          69.83           7.76
      5323        12.6460          74.87          71.65           7.90
      5324        12.6480          85.11          74.14           8.42
      5325        12.6500          82.87          77.34           8.33
      5326        12.6520          84.04          81.01           8.36
      5327        12.6540          88.98          84.23           8.58
      5328        12.6560          93.11          85.57           8.81
      5329        12.6580          83.31          84.39           8.36
      5330        12.6600          78.54          81.66           8.10
      5331        12.6620          75.26          78.81           7.91
      5332        12.6640          84.43          76.57           8.37
      5333        12.6660          87.21          75.02           8.52
      5334        12.6680          76.31          73.86           7.96
      5335        12.6700          63.17          72.82           7.30
      5336        12.6720          73.60          71.87           7.85
      5337        12.6740          76.83          71.18           8.02
      5338        12.6760          69.28          70.82           7.60
      5339        12.6780          74.51          70.84           7.90
      5340        12.6800          76.85          71.23           8.00
      5341        12.6820          86.99          72.05           8.49
      5342        12.6840          91.42          73.36           8.72
      5343        12.6860          86.91          75.33           8.49
      5344        12.6880          86.54          78.18           8.48
      5345        12.6900          86.98          82.26           8.49
      5346        12.6920          95.49          87.98           8.88
      5347        12.6940          95.78          95.76           8.88
      5348        12.6960         110.55         105.72           9.56
      5349        12.6980         112.50         117.07           9.68
      5350        12.7000         134.94         126.89          10.59
      5351        12.7020         132.50         130.52          10.47
      5352        12.7040         121.85         125.66          10.10
      5353        12.7060         120.18         115.30          10.02
      5354        12.7080         117.92         104.01           9.92
      5355        12.7100          90.83          94.32           8.72
      5356        12.7120          87.33          86.84           8.57
      5357        12.7140          88.21          81.33           8.60
      5358        12.7160          75.33          77.38           7.94
      5359        12.7180          86.64          74.58           8.48
      5360        12.7200          77.59          72.52           8.01
      5361        12.7220          65.40          71.09           7.36
      5362        12.7240          72.44          70.07           7.79
      5363        12.7260          65.13          69.34           7.35
      5364        12.7280          62.61          68.83           7.17
      5365        12.7300          75.62          68.52           7.97
      5366        12.7320          72.18          68.37           7.76
      5367        12.7340          78.48          68.40           8.06
      5368        12.7360          64.72          68.59           7.30
      5369        12.7380          79.89          68.97           8.12
      5370        12.7400          65.65          69.59           7.40
      5371        12.7420          76.35          70.52           7.99
      5372        12.7440          74.38          71.89           7.88
      5373        12.7460          71.50          73.86           7.77
      5374        12.7480          68.99          76.68           7.62
      5375        12.7500          79.59          80.62           8.15
      5376        12.7520          88.36          85.97           8.57
      5377        12.7540          82.31          92.96           8.26
      5378        12.7560         103.89         100.62           9.24
      5379        12.7580         120.60         107.05          10.01
      5380        12.7600         129.03         109.38          10.39
      5381        12.7620         106.18         105.72           9.44
      5382        12.7640          93.12          98.56           8.82
      5383        12.7660          89.14          90.91           8.61
      5384        12.7680          92.45          84.39           8.76
      5385        12.7700          80.47          79.36           8.21
      5386        12.7720          92.42          75.65           8.75
      5387        12.7740          73.07          72.97           7.82
      5388        12.7760          73.34          71.04           7.82
      5389        12.7780          65.03          69.58           7.36
      5390        12.7800          66.70          68.56           7.47
      5391        12.7820          64.14          67.83           7.34
      5392        12.7840          71.48          67.25           7.72
      5393        12.7860          66.06          66.80           7.38
      5394        12.7880          58.96          66.45           6.99
      5395        12.7900          67.34          66.17           7.49
      5396        12.7920          62.64          65.97           7.22
      5397        12.7940          73.81          65.83           7.88
      5398        12.7960          79.19          65.73           8.13
      5399        12.7980          68.14          65.67           7.53
      5400        12.8000          73.32          65.64           7.81
      5401        12.8020          70.50          65.66           7.68
      5402        12.8040          74.60          65.71           7.87
      5403        12.8060          66.76          65.79           7.47
      5404        12.8080          69.96          65.92           7.64
      5405        12.8100          69.30          66.08           7.60
      5406        12.8120          79.02          66.30           8.10
      5407        12.8140          65.99          66.57           7.44
      5408        12.8160          60.91          66.90           7.16
      5409        12.8180          62.51          67.32           7.24
      5410        12.8200          72.91          67.85           7.80
      5411        12.8220          76.24          68.53           7.97
      5412        12.8240          64.16          69.18           7.34
      5413        12.8260          63.82          70.35           7.30
      5414        12.8280          69.91          71.97           7.59
      5415        12.8300          87.39          74.13           8.50
      5416        12.8320          77.35          77.04           8.05
      5417        12.8340          81.44          80.90           8.26
      5418        12.8360          85.36          85.72           8.45
      5419        12.8380          98.30          91.05           9.04
      5420        12.8400         103.76          95.51           9.31
      5421        12.8420          97.35          97.08           9.03
      5422        12.8440          97.24          95.07           8.97
      5423        12.8460          86.31          91.00           8.43
      5424        12.8480          92.75          86.79           8.79
      5425        12.8500          79.17          83.47           8.13
      5426        12.8520          73.94          81.29           7.85
      5427        12.8540          89.12          80.17           8.65
      5428        12.8560          77.49          80.02           8.02
      5429        12.8580          74.24          80.76           7.82
      5430        12.8600          73.44          82.43           7.79
      5431        12.8620          75.37          85.16           7.89
      5432        12.8640          96.45          89.23           8.94
      5433        12.8660          84.90          95.06           8.41
      5434        12.8680          91.01         103.21           8.70
      5435        12.8700         110.16         114.26           9.58
      5436        12.8720         123.26         128.44          10.15
      5437        12.8740         136.19         144.89          10.65
      5438        12.8760         146.52         160.94          11.04
      5439        12.8780         165.63         173.34          11.72
      5440        12.8800         197.03         180.51          12.81
      5441        12.8820         182.25         180.80          12.32
      5442        12.8840         191.26         172.34          12.62
      5443        12.8860         186.38         156.37          12.46
      5444        12.8880         150.22         138.19          11.24
      5445        12.8900         115.64         122.04           9.89
      5446        12.8920         107.95         109.47           9.48
      5447        12.8940         101.19         100.40           9.15
      5448        12.8960          92.17          94.28           8.76
      5449        12.8980          93.26          90.48           8.81
      5450        12.9000          83.53          88.41           8.35
      5451        12.9020          79.17          87.38           8.12
      5452        12.9040          73.48          86.43           7.82
      5453        12.9060          84.41          84.67           8.37
      5454        12.9080          74.08          81.97           7.85
      5455        12.9100          78.86          78.97           8.14
      5456        12.9120          77.52          76.25           8.03
      5457        12.9140          70.05          74.01           7.63
      5458        12.9160          70.43          72.26           7.69
      5459        12.9180          74.98          70.92           7.93
      5460        12.9200          76.64          69.89           7.99
      5461        12.9220          68.58          69.11           7.55
      5462        12.9240          63.02          68.50           7.24
      5463        12.9260          65.14          68.04           7.32
      5464        12.9280          76.07          67.70           7.90
      5465        12.9300          64.39          67.46           7.30
      5466        12.9320          48.59          67.31           6.35
      5467        12.9340          51.31          67.28           6.53
      5468        12.9360          60.80          67.37           7.14
      5469        12.9380          59.43          67.62           7.05
      5470        12.9400          64.15          68.07           7.32
      5471        12.9420          66.53          68.77           7.44
      5472        12.9440          61.36          69.75           7.12
      5473        12.9460          63.42          70.98           7.29
      5474        12.9480          71.53          72.22           7.74
      5475        12.9500          71.48          72.97           7.72
      5476        12.9520          69.01          72.76           7.61
      5477        12.9540          73.32          71.64           7.83
      5478        12.9560          64.06          70.16           7.31
      5479        12.9580          64.84          68.78           7.32
      5480        12.9600          76.26          67.64           7.93
      5481        12.9620          72.78          66.77           7.78
      5482        12.9640          66.91          66.13           7.48
      5483        12.9660          58.58          65.55           6.97
      5484        12.9680          53.39          65.19           6.63
      5485        12.9700          58.99          64.92           7.00
      5486        12.9720          58.22          64.72           6.96
      5487        12.9740          62.98          64.55           7.25
      5488        12.9760          53.95          64.42           6.70
      5489        12.9780          53.92          64.31           6.66
      5490        12.9800          60.73          64.21           7.10
      5491        12.9820          59.22          64.13           6.97
      5492        12.9840          58.26          64.07           6.98
      5493        12.9860          64.29          64.01           7.30
      5494        12.9880          58.90          63.96           6.97
      5495        12.9900          66.32          63.92           7.38
      5496        12.9920          60.83          63.88           7.10
      5497        12.9940          65.59          63.85           7.35
      5498        12.9960          63.73          63.82           7.25
      5499        12.9980          65.96          63.79           7.39
      5500        13.0000          60.46          63.59           7.08
      5501        13.0020          72.69          63.58           7.77
      5502        13.0040          69.18          63.56           7.57
      5503        13.0060          67.14          63.27           7.43
      5504        13.0080          69.39          63.27           7.60
      5505        13.0100          61.50          63.27           7.14
      5506        13.0120          60.55          63.27           7.10
      5507        13.0140          64.25          63.28           7.34
      5508        13.0160          61.24          63.28           7.16
      5509        13.0180          62.41          63.29           7.20
      5510        13.0200          57.42          63.29           6.91
      5511        13.0220          55.59          63.30           6.81
      5512        13.0240          58.00          63.30           6.97
      5513        13.0260          55.42          63.31           6.81
      5514        13.0280          67.94          63.32           7.53
      5515        13.0300          69.11          63.29           7.59
      5516        13.0320          64.26          63.30           7.26
      5517        13.0340          51.83          63.31           6.51
      5518        13.0360          63.71          64.07           7.28
      5519        13.0380          62.65          64.11           7.19
      5520        13.0400          62.16          64.14           7.13
      5521        13.0420          61.41          64.18           7.11
      5522        13.0440          59.73          64.22           7.06
      5523        13.0460          62.13          64.26           7.16
      5524        13.0480          62.46          64.30           7.19
      5525        13.0500          68.01          64.35           7.50
      5526        13.0520          66.99          64.40           7.41
      5527        13.0540          64.63          64.44           7.28
      5528        13.0560          68.18          64.50           7.48
      5529        13.0580          61.58          64.55           7.18
      5530        13.0600          61.74          64.60           7.20
      5531        13.0620          56.55          64.66           6.87
      5532        13.0640          53.59          64.73           6.67
      5533        13.0660          63.51          64.79           7.23
      5534        13.0680          68.76          64.86           7.55
      5535        13.0700          64.71          64.93           7.29
      5536        13.0720          67.20          65.01           7.50
      5537        13.0740          66.86          65.09           7.45
      5538        13.0760          65.48          65.15           7.41
      5539        13.0780          64.36          65.24           7.32
      5540        13.0800          70.09          65.34           7.63
      5541        13.0820          58.41          65.44           6.96
      5542        13.0840          58.97          65.56           6.97
      5543        13.0860          56.06          65.68           6.79
      5544        13.0880          65.60          65.81           7.33
      5545        13.0900          64.07          65.95           7.31
      5546        13.0920          63.39          66.10           7.24
      5547        13.0940          68.92          66.26           7.58
      5548        13.0960          71.49          66.44           7.70
      5549        13.0980          68.80          66.63           7.56
      5550        13.1000          66.59          66.84           7.44
      5551        13.1020          66.81          67.08           7.42
      5552        13.1040          73.14          67.33           7.74
      5553        13.1060          68.77          67.61           7.56
      5554        13.1080          61.79          67.93           7.15
      5555        13.1100          68.47          68.27           7.49
      5556        13.1120          73.59          68.66           7.82
      5557        13.1140          92.35          69.10           8.73
      5558        13.1160          76.61          69.59           7.99
      5559        13.1180          71.34          70.16           7.69
      5560        13.1200          73.04          70.80           7.79
      5561        13.1220          81.53          71.54           8.20
      5562        13.1240          73.57          72.39           7.80
      5563        13.1260          90.24          73.39           8.63
      5564        13.1280          71.90          74.57           7.71
      5565        13.1300          80.47          75.96           8.12
      5566        13.1320          75.40          77.64           7.90
      5567        13.1340          77.94          79.67           8.03
      5568        13.1360          87.64          82.18           8.57
      5569        13.1380          88.80          85.33           8.61
      5570        13.1400          87.70          89.37           8.53
      5571        13.1420         105.20          94.66           9.31
      5572        13.1440          95.24         101.75           8.85
      5573        13.1460         105.23         111.42           9.37
      5574        13.1480         109.32         124.69           9.54
      5575        13.1500         129.43         142.78          10.39
      5576        13.1520         138.00         166.92          10.73
      5577        13.1540         197.76         197.48          12.84
      5578        13.1560         247.95         232.11          14.41
      5579        13.1580         263.31         262.57          14.83
      5580        13.1600         268.37         275.44          14.90
      5581        13.1620         245.59         263.05          14.20
      5582        13.1640         219.23         232.82          13.46
      5583        13.1660         182.67         198.19          12.30
      5584        13.1680         161.55         167.54          11.56
      5585        13.1700         136.09         143.31          10.59
      5586        13.1720         118.00         125.13           9.87
      5587        13.1740         110.89         111.81           9.60
      5588        13.1760         118.62         102.10           9.88
      5589        13.1780         109.60          94.99           9.49
      5590        13.1800          77.14          89.70           7.97
      5591        13.1820          74.21          85.67           7.85
      5592        13.1840          78.31          82.53           8.07
      5593        13.1860          75.90          80.03           7.93
      5594        13.1880          77.55          78.01           7.99
      5595        13.1900          74.85          76.36           7.84
      5596        13.1920          79.25          74.98           8.13
      5597        13.1940          75.32          73.82           7.93
      5598        13.1960          78.68          72.85           8.09
      5599        13.1980          77.75          72.01           8.01
      5600        13.2000          61.11          71.29           7.11
      5601        13.2020          65.17          70.68           7.34
      5602        13.2040          71.86          70.14           7.74
      5603        13.2060          73.32          69.66           7.78
      5604        13.2080          74.11          69.25           7.89
      5605        13.2100          70.09          68.88           7.64
      5606        13.2120          77.57          68.56           8.01
      5607        13.2140          71.05          68.27           7.68
      5608        13.2160          75.05          68.01           7.85
      5609        13.2180          66.02          67.78           7.39
      5610        13.2200          71.72          67.57           7.68
      5611        13.2220          73.24          67.38           7.76
      5612        13.2240          56.41          67.21           6.85
      5613        13.2260          55.46          67.06           6.74
      5614        13.2280          60.70          67.19           7.01
      5615        13.2300          71.87          67.07           7.72
      5616        13.2320          81.02          66.96           8.24
      5617        13.2340          71.18          66.87           7.74
      5618        13.2360          73.31          66.78           7.82
      5619        13.2380          73.38          66.70           7.78
      5620        13.2400          66.62          66.63           7.44
      5621        13.2420          67.77          66.57           7.54
      5622        13.2440          63.30          66.51           7.28
      5623        13.2460          57.47          66.46           6.93
      5624        13.2480          57.22          66.41           6.91
      5625        13.2500          66.20          66.37           7.43
      5626        13.2520          68.86          66.34           7.57
      5627        13.2540          62.93          66.31           7.22
      5628        13.2560          65.21          66.28           7.37
      5629        13.2580          73.43          66.26           7.81
      5630        13.2600          72.22          66.25           7.73
      5631        13.2620          68.48          66.23           7.56
      5632        13.2640          62.27          66.22           7.22
      5633        13.2660          64.91          66.22           7.35
      5634        13.2680          58.19          66.22           6.95
      5635        13.2700          69.68          66.22           7.55
      5636        13.2720          67.19          66.71           7.44
      5637        13.2740          62.28          66.74           7.12
      5638        13.2760          55.50          66.77           6.82
      5639        13.2780          66.65          66.81           7.45
      5640        13.2800          71.04          66.85           7.67
      5641        13.2820          70.27          66.89           7.69
      5642        13.2840          71.82          66.95           7.75
      5643        13.2860          68.01          66.27           7.53
      5644        13.2880          65.58          66.36           7.38
      5645        13.2900          74.56          66.46           7.87
      5646        13.2920          69.61          66.56           7.66
      5647        13.2940          66.54          66.67           7.47
      5648        13.2960          68.20          66.79           7.51
      5649        13.2980          64.01          66.92           7.26
      5650        13.3000          71.61          67.06           7.73
      5651        13.3020          59.83          67.21           7.07
      5652        13.3040          68.32          67.39           7.52
      5653        13.3060          64.39          67.57           7.30
      5654        13.3080          59.71          67.78           7.02
      5655        13.3100          61.77          68.02           7.16
      5656        13.3120          70.58          68.28           7.69
      5657        13.3140          76.27          68.57           7.98
      5658        13.3160          62.59          68.91           7.25
      5659        13.3180          64.14          69.29           7.32
      5660        13.3200          67.73          69.95           7.52
      5661        13.3220          74.45          70.47           7.89
      5662        13.3240          69.63          71.09           7.63
      5663        13.3260          76.90          71.81           8.00
      5664        13.3280          70.08          72.68           7.67
      5665        13.3300          81.68          73.74           8.26
      5666        13.3320          73.52          75.05           7.84
      5667        13.3340          78.24          76.72           8.06
      5668        13.3360          83.60          78.89           8.28
      5669        13.3380          89.35          81.77           8.63
      5670        13.3400          83.72          85.65           8.36
      5671        13.3420          92.55          90.91           8.80
      5672        13.3440         107.75          97.98           9.46
      5673        13.3460         113.62         107.23           9.75
      5674        13.3480         132.99         118.66          10.52
      5675        13.3500         144.25         131.06          10.94
      5676        13.3520         139.06         141.06          10.75
      5677        13.3540         164.43         144.05          11.69
      5678        13.3560         169.27         138.47          11.84
      5679        13.3580         130.18         127.69          10.41
      5680        13.3600         100.71         116.19           9.19
      5681        13.3620         104.36         106.41           9.32
      5682        13.3640         104.63          98.98           9.32
      5683        13.3660          97.88          93.70           8.99
      5684        13.3680          97.95          90.19           9.03
      5685        13.3700          94.73          88.06           8.87
      5686        13.3720          95.56          87.03           8.91
      5687        13.3740         105.96          86.93           9.38
      5688        13.3760         100.95          87.67           9.15
      5689        13.3780         108.76          89.30           9.48
      5690        13.3800         100.68          91.99           9.12
      5691        13.3820         109.61          96.03           9.56
      5692        13.3840         117.84         101.87           9.91
      5693        13.3860         119.47         110.14           9.93
      5694        13.3880         102.41         121.59           9.18
      5695        13.3900         133.46         136.93          10.52
      5696        13.3920         151.71         156.35          11.19
      5697        13.3940         169.74         178.25          11.83
      5698        13.3960         170.15         197.39          11.83
      5699        13.3980         203.49         205.40          12.91
      5700        13.4000         186.75         197.57          12.43
      5701        13.4020         174.99         178.46          12.10
      5702        13.4040         151.20         156.41          11.25
      5703        13.4060         169.55         136.79          11.87
      5704        13.4080         153.46         121.20          11.37
      5705        13.4100         127.70         109.50          10.37
      5706        13.4120         119.78         100.96          10.05
      5707        13.4140         111.57          94.81           9.70
      5708        13.4160          99.44          90.42           9.10
      5709        13.4180          88.00          87.30           8.54
      5710        13.4200          98.09          85.13           9.00
      5711        13.4220          84.89          83.67           8.44
      5712        13.4240          92.69          82.81           8.78
      5713        13.4260          79.67          82.50           8.17
      5714        13.4280          82.69          82.75           8.29
      5715        13.4300          75.53          83.64           7.90
      5716        13.4320          79.92          85.35           8.16
      5717        13.4340          91.94          88.06           8.77
      5718        13.4360          92.33          92.09           8.79
      5719        13.4380         104.67          97.78           9.33
      5720        13.4400         104.44         105.39           9.31
      5721        13.4420         120.22         114.69           9.99
      5722        13.4440         116.63         124.26           9.86
      5723        13.4460         134.54         130.84          10.57
      5724        13.4480         119.12         130.88           9.94
      5725        13.4500          99.20         124.20           9.09
      5726        13.4520          98.24         114.19           9.03
      5727        13.4540         103.06         104.22           9.26
      5728        13.4560          93.51          95.85           8.82
      5729        13.4580          91.32          89.36           8.73
      5730        13.4600          91.85          84.49           8.72
      5731        13.4620          79.80          80.89           8.15
      5732        13.4640          70.49          78.22           7.68
      5733        13.4660          61.00          76.44           7.12
      5734        13.4680          61.17          74.93           7.13
      5735        13.4700          74.63          73.75           7.88
      5736        13.4720          70.95          72.82           7.70
      5737        13.4740          80.50          72.06           8.18
      5738        13.4760          76.03          71.44           7.94
      5739        13.4780          82.28          70.92           8.24
      5740        13.4800          64.04          70.49           7.30
      5741        13.4820          64.55          69.87           7.37
      5742        13.4840          63.82          69.57           7.32
      5743        13.4860          68.48          69.31           7.57
      5744        13.4880          72.22          69.09           7.81
      5745        13.4900          75.10          68.91           7.94
      5746        13.4920          72.04          68.75           7.72
      5747        13.4940          65.47          68.62           7.34
      5748        13.4960          69.82          68.52           7.64
      5749        13.4980          74.99          68.43           7.89
      5750        13.5000          67.01          68.37           7.49
      5751        13.5020          64.87          68.33           7.35
      5752        13.5040          64.31          68.31           7.33
      5753        13.5060          69.39          68.32           7.59
      5754        13.5080          66.08          68.35           7.42
      5755        13.5100          70.33          68.41           7.68
      5756        13.5120          68.64          68.52           7.57
      5757        13.5140          71.30          68.69           7.70
      5758        13.5160          67.13          68.94           7.45
      5759        13.5180          68.72          69.28           7.55
      5760        13.5200          70.96          69.76           7.67
      5761        13.5220          60.84          70.40           7.11
      5762        13.5240          66.15          71.21           7.41
      5763        13.5260          61.77          71.65           7.15
      5764        13.5280          67.96          72.47           7.53
      5765        13.5300          64.75          72.85           7.33
      5766        13.5320          72.68          72.66           7.71
      5767        13.5340          68.96          72.02           7.59
      5768        13.5360          66.98          71.30           7.45
      5769        13.5380          71.65          70.89           7.69
      5770        13.5400          70.80          70.51           7.68
      5771        13.5420          85.42          70.34           8.42
      5772        13.5440          71.99          70.39           7.76
      5773        13.5460          69.58          70.64           7.62
      5774        13.5480          71.89          71.12           7.72
      5775        13.5500          70.61          71.85           7.61
      5776        13.5520          68.72          72.82           7.55
      5777        13.5540          68.54          73.96           7.57
      5778        13.5560          86.18          75.07           8.44
      5779        13.5580          73.62          75.76           7.83
      5780        13.5600          72.21          75.77           7.77
      5781        13.5620          77.87          75.26           8.04
      5782        13.5640          68.96          74.72           7.58
      5783        13.5660          70.93          74.27           7.70
      5784        13.5680          69.02          74.14           7.57
      5785        13.5700          72.31          74.34           7.76
      5786        13.5720          80.11          74.92           8.16
      5787        13.5740          77.43          75.92           8.03
      5788        13.5760          75.55          77.21           7.90
      5789        13.5780          70.69          79.39           7.65
      5790        13.5800          69.98          82.69           7.63
      5791        13.5820          81.24          86.92           8.18
      5792        13.5840          74.99          92.65           7.88
      5793        13.5860          88.84         100.07           8.56
      5794        13.5880          93.10         108.99           8.80
      5795        13.5900         109.51         118.06           9.52
      5796        13.5920         130.49         124.33          10.38
      5797        13.5940         125.93         124.61          10.23
      5798        13.5960         113.00         118.75           9.70
      5799        13.5980         109.74         109.80           9.59
      5800        13.6000         101.11         100.84           9.18
      5801        13.6020          91.26          93.32           8.72
      5802        13.6040          89.18          87.49           8.63
      5803        13.6060          81.36          83.16           8.23
      5804        13.6080          75.87          80.00           7.99
      5805        13.6100          73.19          77.72           7.83
      5806        13.6120          70.28          76.06           7.65
      5807        13.6140          72.33          74.87           7.75
      5808        13.6160          66.34          74.00           7.43
      5809        13.6180          63.19          73.39           7.27
      5810        13.6200          70.82          72.97           7.67
      5811        13.6220          70.69          72.71           7.67
      5812        13.6240          69.94          72.59           7.63
      5813        13.6260          75.05          72.55           7.88
      5814        13.6280          81.47          72.56           8.23
      5815        13.6300          67.02          72.60           7.45
      5816        13.6320          63.99          72.68           7.26
      5817        13.6340          63.80          72.86           7.27
      5818        13.6360          67.96          73.27           7.52
      5819        13.6380          86.90          73.73           8.50
      5820        13.6400          75.31          74.36           7.94
      5821        13.6420          75.00          75.22           7.89
      5822        13.6440          71.32          76.36           7.70
      5823        13.6460          79.22          77.89           8.10
      5824        13.6480          81.37          79.95           8.23
      5825        13.6500          70.89          82.72           7.68
      5826        13.6520          93.78          86.46           8.80
      5827        13.6540          99.44          91.41           9.11
      5828        13.6560         101.26          97.75           9.17
      5829        13.6580          97.01         105.40           8.97
      5830        13.6600         103.88         113.81           9.24
      5831        13.6620         129.66         121.93          10.30
      5832        13.6640         126.98         127.95          10.26
      5833        13.6660         118.51         129.12           9.91
      5834        13.6680         116.09         124.60           9.82
      5835        13.6700         106.94         116.61           9.48
      5836        13.6720         118.82         108.23           9.98
      5837        13.6740         104.77         101.25           9.39
      5838        13.6760         108.58          96.21           9.49
      5839        13.6780          97.43          93.08           9.02
      5840        13.6800          87.79          91.68           8.56
      5841        13.6820          86.50          91.86           8.52
      5842        13.6840          87.56          93.50           8.55
      5843        13.6860          96.08          96.46           8.95
      5844        13.6880         113.42         100.26           9.74
      5845        13.6900         116.32         103.98           9.87
      5846        13.6920         119.82         106.34          10.02
      5847        13.6940         119.73         107.04           9.98
      5848        13.6960         120.33         107.29          10.03
      5849        13.6980         116.37         108.72           9.86
      5850        13.7000         121.30         112.44          10.07
      5851        13.7020         135.98         118.54          10.69
      5852        13.7040         124.29         126.33          10.20
      5853        13.7060         132.79         133.42          10.49
      5854        13.7080         134.56         136.02          10.58
      5855        13.7100         127.68         131.96          10.30
      5856        13.7120         120.19         122.84           9.99
      5857        13.7140         110.70         112.34           9.59
      5858        13.7160          94.62         102.89           8.88
      5859        13.7180          83.24          95.28           8.33
      5860        13.7200          88.49          89.48           8.54
      5861        13.7220         100.26          84.96           9.08
      5862        13.7240          81.55          81.80           8.27
      5863        13.7260          81.52          79.49           8.26
      5864        13.7280          76.40          77.86           7.94
      5865        13.7300          74.45          76.61           7.78
      5866        13.7320          79.82          75.69           8.12
      5867        13.7340          68.46          75.03           7.51
      5868        13.7360          69.60          74.58           7.60
      5869        13.7380          73.23          74.33           7.79
      5870        13.7400          74.63          74.25           7.85
      5871        13.7420          82.24          74.36           8.23
      5872        13.7440          78.38          74.68           8.04
      5873        13.7460          80.99          75.25           8.15
      5874        13.7480          69.64          76.16           7.62
      5875        13.7500          79.07          77.50           8.11
      5876        13.7520          81.54          79.42           8.20
      5877        13.7540          67.41          82.09           7.44
      5878        13.7560          71.00          85.66           7.59
      5879        13.7580          80.84          90.18           8.16
      5880        13.7600          92.63          95.30           8.73
      5881        13.7620          92.82          99.90           8.75
      5882        13.7640          86.67         102.11           8.46
      5883        13.7660          96.06         100.80           8.93
      5884        13.7680          90.20          96.80           8.69
      5885        13.7700          94.09          92.02           8.87
      5886        13.7720          90.80          87.79           8.69
      5887        13.7740          80.59          84.60           8.18
      5888        13.7760          68.85          82.51           7.56
      5889        13.7780          80.32          81.47           8.15
      5890        13.7800          67.58          81.40           7.48
      5891        13.7820          80.84          82.28           8.18
      5892        13.7840          77.35          84.12           8.02
      5893        13.7860          78.44          86.87           8.11
      5894        13.7880          79.90          90.23           8.16
      5895        13.7900          85.56          93.34           8.42
      5896        13.7920         110.02          94.84           9.53
      5897        13.7940         105.43          93.73           9.38
      5898        13.7960         105.10          90.36           9.40
      5899        13.7980         110.62          86.52           9.63
      5900        13.8000         102.64          83.02           9.27
      5901        13.8020          89.34          80.25           8.61
      5902        13.8040          84.16          78.24           8.36
      5903        13.8060          85.22          76.89           8.41
      5904        13.8080          83.86          76.10           8.37
      5905        13.8100          77.10          75.78           8.06
      5906        13.8120          74.49          75.91           7.90
      5907        13.8140          83.76          76.48           8.34
      5908        13.8160          74.53          77.56           7.88
      5909        13.8180          77.32          79.24           8.01
      5910        13.8200          71.15          81.63           7.70
      5911        13.8220          71.79          84.73           7.72
      5912        13.8240          83.54          88.59           8.32
      5913        13.8260          86.98          92.58           8.47
      5914        13.8280         102.68          95.62           9.22
      5915        13.8300         115.08          96.82           9.79
      5916        13.8320         103.07          96.51           9.27
      5917        13.8340          98.93          95.88           9.10
      5918        13.8360         101.01          95.73           9.21
      5919        13.8380         102.28          95.63           9.26
      5920        13.8400          98.30          95.12           9.03
      5921        13.8420          85.29          93.40           8.45
      5922        13.8440         113.02          91.00           9.67
      5923        13.8460          92.02          88.92           8.75
      5924        13.8480          85.78          87.86           8.44
      5925        13.8500          82.74          88.04           8.26
      5926        13.8520          95.06          89.34           8.89
      5927        13.8540          90.85          91.14           8.66
      5928        13.8560          81.29          92.26           8.22
      5929        13.8580          82.00          91.50           8.27
      5930        13.8600         100.35          88.72           9.13
      5931        13.8620          95.39          84.94           8.87
      5932        13.8640          87.61          81.22           8.54
      5933        13.8660          78.07          78.08           8.07
      5934        13.8680          71.37          75.60           7.73
      5935        13.8700          72.37          73.70           7.76
      5936        13.8720          84.12          72.27           8.34
      5937        13.8740          72.56          71.18           7.75
      5938        13.8760          59.25          70.35           7.01
      5939        13.8780          59.64          69.71           7.05
      5940        13.8800          75.80          69.19           7.96
      5941        13.8820          72.75          68.78           7.78
      5942        13.8840          65.42          68.43           7.40
      5943        13.8860          65.35          68.15           7.36
      5944        13.8880          61.77          67.91           7.14
      5945        13.8900          75.25          67.71           7.87
      5946        13.8920          63.48          67.54           7.21
      5947        13.8940          58.73          67.39           7.00
      5948        13.8960          67.81          67.16           7.49
      5949        13.8980          64.61          67.06           7.32
      5950        13.9000          58.00          66.98           6.97
      5951        13.9020          63.30          66.92           7.27
      5952        13.9040          72.56          66.89           7.79
      5953        13.9060          66.31          66.88           7.45
      5954        13.9080          72.63          66.90           7.80
      5955        13.9100          67.80          66.97           7.53
      5956        13.9120          62.37          67.08           7.24
      5957        13.9140          64.46          67.25           7.36
      5958        13.9160          67.64          67.45           7.49
      5959        13.9180          58.96          67.66           6.99
      5960        13.9200          53.60          67.76           6.67
      5961        13.9220          67.12          67.69           7.44
      5962        13.9240          77.74          67.38           8.02
      5963        13.9260          69.28          67.09           7.54
      5964        13.9280          63.79          66.81           7.34
      5965        13.9300          73.21          66.58           7.82
      5966        13.9320          71.92          66.39           7.73
      5967        13.9340          79.26          66.24           8.12
      5968        13.9360          86.09          66.13           8.42
      5969        13.9380          69.57          66.04           7.59
      5970        13.9400          57.97          65.96           6.92
      5971        13.9420          70.36          65.91           7.64
      5972        13.9440          69.01          65.86           7.57
      5973        13.9460          71.22          65.81           7.72
      5974        13.9480          68.40          65.78           7.54
      5975        13.9500          75.84          65.74           7.95
      5976        13.9520          69.74          65.84           7.63
      5977        13.9540          71.68          65.82           7.74
      5978        13.9560          73.09          65.80           7.82
      5979        13.9580          72.57          65.78           7.77
      5980        13.9600          66.82          65.69           7.43
      5981        13.9620          54.64          65.68           6.73
      5982        13.9640          71.97          65.67           7.71
      5983        13.9660          62.33          65.66           7.22
      5984        13.9680          60.44          65.65           7.09
      5985        13.9700          66.61          65.64           7.46
      5986        13.9720          64.41          65.57           7.33
      5987        13.9740          70.45          65.57           7.63
      5988        13.9760          60.81          65.57           7.09
      5989        13.9780          72.90          65.56           7.77
      5990        13.9800          68.23          65.56           7.52
      5991        13.9820          77.15          65.56           7.97
      5992        13.9840          66.12          65.56           7.45
      5993        13.9860          54.97          65.57           6.78
      5994        13.9880          58.50          65.49           6.95
      5995        13.9900          76.50          65.50           7.92
      5996        13.9920          55.29          65.51           6.76
      5997        13.9940          70.15          65.52           7.58
      5998        13.9960          66.02          65.53           7.43
      5999        13.9980          74.72          65.54          10.77
      6000        14.0000          64.03          65.55           7.54
      6001        14.0020          69.45          65.57           7.70
      6002        14.0040          58.68          65.59           7.19
      6003        14.0060          69.33          65.61           7.86
      6004        14.0080          63.40          65.63           7.46
      6005        14.0100          71.29          65.65           7.86
      6006        14.0120          89.63          65.68           8.88
      6007        14.0140          76.88          65.72           8.23
      6008        14.0160          75.56          65.76           8.12
      6009        14.0180          76.83          65.80           8.23
      6010        14.0200          66.58          65.85           7.74
      6011        14.0220          68.31          65.91           7.81
      6012        14.0240          68.01          65.98           7.78
      6013        14.0260          72.27          66.06           8.00
      6014        14.0280          71.53          66.15           7.95
      6015        14.0300          57.26          66.27           7.03
      6016        14.0320          59.52          66.42           7.12
      6017        14.0340          72.14          66.61           7.98
      6018        14.0360          79.42          66.84           8.35
      6019        14.0380          76.86          67.15           8.21
      6020        14.0400          64.81          67.54           7.53
      6021        14.0420          66.19          68.04           7.68
      6022        14.0440          68.09          68.65           7.81
      6023        14.0460          61.44          69.32           7.36
      6024        14.0480          60.52          69.93           7.31
      6025        14.0500          74.25          70.44           8.14
      6026        14.0520          83.19          70.45           8.57
      6027        14.0540          71.49          70.25           7.96
      6028        14.0560          58.44          70.02           7.19
      6029        14.0580          60.17          69.90           7.24
      6030        14.0600          59.78          69.97           7.20
      6031        14.0620          60.92          70.25           7.30
      6032        14.0640          67.94          70.77           7.68
      6033        14.0660          66.89          71.57           7.61
      6034        14.0680          59.17          72.73           7.22
      6035        14.0700          69.48          74.37           7.86
      6036        14.0720          72.38          76.62           7.99
      6037        14.0740          76.38          79.66           8.20
      6038        14.0760          82.85          83.66           8.57
      6039        14.0780          94.21          88.64           9.18
      6040        14.0800          99.71          94.16           9.42
      6041        14.0820         102.64          99.00           9.57
      6042        14.0840         111.50         101.17           9.90
      6043        14.0860         101.40          99.50           9.38
      6044        14.0880          80.97          94.90           8.37
      6045        14.0900          75.31          89.34           8.05
      6046        14.0920          91.31          84.21           8.90
      6047        14.0940          95.99          80.02           9.17
      6048        14.0960          74.35          76.84           8.09
      6049        14.0980          73.03          74.42           8.06
      6050        14.1000          79.22          72.62           8.42
      6051        14.1020          79.16          71.28           8.38
      6052        14.1040          75.98          70.28           8.19
      6053        14.1060          77.41          69.79           8.31
      6054        14.1080          70.15          69.21           7.95
      6055        14.1100          58.01          68.76           7.22
      6056        14.1120          64.13          68.40           7.50
      6057        14.1140          63.71          68.11           7.49
      6058        14.1160          65.62          67.89           7.57
      6059        14.1180          64.99          67.70           7.53
      6060        14.1200          67.07          67.56           7.65
      6061        14.1220          67.33          67.45           7.68
      6062        14.1240          59.49          67.37           7.26
      6063        14.1260          59.97          67.31           7.27
      6064        14.1280          62.85          67.27           7.48
      6065        14.1300          62.54          67.26           7.46
      6066        14.1320          66.21          67.27           7.61
      6067        14.1340          71.13          67.29           7.91
      6068        14.1360          76.11          67.34           8.18
      6069        14.1380          81.12          67.41           8.45
      6070        14.1400          76.93          67.50           8.21
      6071        14.1420          79.18          68.10           8.33
      6072        14.1440          63.09          68.26           7.42
      6073        14.1460          63.45          68.45           7.42
      6074        14.1480          80.41          68.68           8.44
      6075        14.1500          84.07          68.96           8.62
      6076        14.1520          81.98          69.30           8.50
      6077        14.1540          86.09          69.71           8.75
      6078        14.1560          91.39          70.20           9.01
      6079        14.1580          90.00          70.81           8.95
      6080        14.1600          84.64          71.57           8.68
      6081        14.1620          91.46          72.54           8.98
      6082        14.1640          94.60          73.80           9.16
      6083        14.1660          97.35          75.46           9.22
      6084        14.1680          97.27          77.67           9.23
      6085        14.1700         112.03          80.61           9.98
      6086        14.1720         110.64          84.51           9.85
      6087        14.1740         115.51          89.54          10.10
      6088        14.1760         125.36          95.67          10.57
      6089        14.1780         126.45         102.37          10.60
      6090        14.1800         138.14         108.08          11.04
      6091        14.1820         119.90         110.54          10.35
      6092        14.1840         132.46         108.50          10.76
      6093        14.1860         110.99         103.14           9.91
      6094        14.1880         102.35          96.74           9.48
      6095        14.1900          94.26          90.89           9.10
      6096        14.1920          92.09          86.19           9.01
      6097        14.1940          90.92          82.66           8.89
      6098        14.1960          78.68          80.12           8.28
      6099        14.1980          81.85          78.36           8.45
      6100        14.2000          85.57          77.20           8.64
      6101        14.2020          72.48          76.51           7.99
      6102        14.2040          71.99          76.19           7.88
      6103        14.2060          59.62          76.19           7.20
      6104        14.2080          79.10          76.47           8.35
      6105        14.2100          89.35          77.05           8.90
      6106        14.2120          84.29          77.95           8.63
      6107        14.2140          67.22          79.24           7.70
      6108        14.2160          69.03          81.78           7.79
      6109        14.2180          80.93          84.06           8.47
      6110        14.2200          83.08          87.24           8.60
      6111        14.2220          91.55          91.36           8.96
      6112        14.2240          91.58          96.61           8.96
      6113        14.2260          93.72         102.67           9.09
      6114        14.2280         102.37         109.26           9.51
      6115        14.2300         110.96         116.25           9.91
      6116        14.2320         123.19         124.13          10.44
      6117        14.2340         130.18         133.43          10.77
      6118        14.2360         148.57         143.48          11.51
      6119        14.2380         164.22         151.38          12.16
      6120        14.2400         182.99         153.18          12.67
      6121        14.2420         161.61         147.55          11.88
      6122        14.2440         140.26         137.29          11.13
      6123        14.2460         125.46         126.33          10.47
      6124        14.2480         108.61         117.07           9.80
      6125        14.2500          96.44         110.25           9.27
      6126        14.2520         102.52         105.86           9.50
      6127        14.2540          99.69         103.69           9.39
      6128        14.2560         111.05         103.60           9.88
      6129        14.2580         107.40         105.58           9.75
      6130        14.2600         104.87         109.82           9.58
      6131        14.2620         109.94         116.70           9.84
      6132        14.2640         133.17         126.71          10.86
      6133        14.2660         124.57         140.36          10.52
      6134        14.2680         139.39         157.70          11.09
      6135        14.2700         176.82         177.30          12.45
      6136        14.2720         225.62         194.81          14.08
      6137        14.2740         227.98         203.26          14.24
      6138        14.2760         226.56         198.02          14.15
      6139        14.2780         187.64         181.74          12.79
      6140        14.2800         148.75         161.42          11.44
      6141        14.2820         139.69         142.33          11.06
      6142        14.2840         113.99         126.59          10.05
      6143        14.2860         112.40         114.39           9.94
      6144        14.2880         115.49         105.21          10.03
      6145        14.2900         101.05          98.41           9.52
      6146        14.2920          97.68          93.40           9.33
      6147        14.2940         104.44          89.69           9.62
      6148        14.2960          93.17          86.94           9.08
      6149        14.2980          81.05          84.90           8.34
      6150        14.3000          73.78          83.38           7.99
      6151        14.3020          89.22          82.28           8.90
      6152        14.3040          87.22          81.51           8.69
      6153        14.3060          72.18          81.38           7.98
      6154        14.3080          86.91          81.16           8.79
      6155        14.3100          91.02          81.18           8.93
      6156        14.3120          81.67          81.43           8.54
      6157        14.3140          86.06          81.92           8.77
      6158        14.3160          90.03          82.52           8.90
      6159        14.3180          81.86          83.56           8.49
      6160        14.3200          92.43          84.93           9.02
      6161        14.3220          74.76          86.69           8.22
      6162        14.3240          96.42          88.94           9.23
      6163        14.3260          90.44          91.82           9.02
      6164        14.3280          93.87          95.52           9.16
      6165        14.3300         112.17         100.32           9.95
      6166        14.3320         113.78         106.66          10.12
      6167        14.3340         128.54         115.10          10.68
      6168        14.3360         120.56         126.44          10.33
      6169        14.3380         141.71         141.61          11.20
      6170        14.3400         165.86         161.71          12.20
      6171        14.3420         176.66         187.64          12.60
      6172        14.3440         217.42         219.14          13.98
      6173        14.3460         274.27         253.13          15.71
      6174        14.3480         307.33         281.80          16.50
      6175        14.3500         276.98         294.64          15.60
      6176        14.3520         263.82         286.64          15.12
      6177        14.3540         247.57         263.26          14.60
      6178        14.3560         215.13         233.84          13.69
      6179        14.3580         194.86         204.49          13.11
      6180        14.3600         155.44         177.79          11.69
      6181        14.3620         126.99         155.07          10.51
      6182        14.3640         110.38         136.80           9.79
      6183        14.3660         105.07         122.71           9.56
      6184        14.3680          96.10         112.00           9.17
      6185        14.3700         101.69         103.88           9.39
      6186        14.3720          93.81          97.69           9.14
      6187        14.3740          95.83          92.66           9.22
      6188        14.3760          88.68          88.93           8.82
      6189        14.3780          80.43          85.97           8.42
      6190        14.3800          80.38          83.59           8.47
      6191        14.3820          88.21          81.65           8.86
      6192        14.3840          88.49          80.07           8.80
      6193        14.3860          71.41          78.77           7.95
      6194        14.3880          77.87          77.69           8.30
      6195        14.3900          75.39          76.81           8.14
      6196        14.3920          71.00          76.10           7.93
      6197        14.3940          80.71          75.53           8.40
      6198        14.3960          86.44          75.08           8.72
      6199        14.3980          84.93          74.76           8.76
      6200        14.4000          76.31          74.56           8.24
      6201        14.4020          74.19          74.46           8.06
      6202        14.4040          79.42          74.49           8.33
      6203        14.4060          71.39          74.63           7.90
      6204        14.4080          68.99          74.92           7.82
      6205        14.4100          78.84          74.89           8.39
      6206        14.4120          82.16          75.53           8.55
      6207        14.4140          78.40          76.39           8.31
      6208        14.4160          75.69          77.53           8.15
      6209        14.4180          80.42          79.05           8.51
      6210        14.4200          90.13          81.08           9.02
      6211        14.4220          91.10          83.79           9.04
      6212        14.4240          94.51          87.81           9.22
      6213        14.4260         102.93          92.79           9.58
      6214        14.4280         101.49          99.50           9.55
      6215        14.4300         127.75         108.39          10.70
      6216        14.4320         146.06         119.81          11.46
      6217        14.4340         169.50         133.56          12.37
      6218        14.4360         157.24         148.01          11.95
      6219        14.4380         167.37         159.30          12.20
      6220        14.4400         145.20         162.48          11.21
      6221        14.4420         147.13         155.79          11.20
      6222        14.4440         130.19         142.62          10.60
      6223        14.4460         114.09         127.94           9.84
      6224        14.4480          88.61         114.78           8.73
      6225        14.4500          96.02         104.12           9.11
      6226        14.4520          89.01          95.89           8.82
      6227        14.4540          83.22          89.67           8.56
      6228        14.4560          80.49          85.01           8.44
      6229        14.4580          75.84          81.51           8.17
      6230        14.4600          62.12          78.85           7.41
      6231        14.4620          70.37          76.80           7.87
      6232        14.4640          87.51          75.18           8.72
      6233        14.4660          66.05          73.89           7.68
      6234        14.4680          75.81          72.84           8.13
      6235        14.4700          70.01          71.98           7.85
      6236        14.4720          79.45          71.26           8.32
      6237        14.4740          68.61          70.66           7.78
      6238        14.4760          74.31          70.15           8.07
      6239        14.4780          58.54          69.72           7.22
      6240        14.4800          66.20          69.36           7.62
      6241        14.4820          59.79          69.05           7.28
      6242        14.4840          68.18          68.57           7.74
      6243        14.4860          64.28          67.90           7.47
      6244        14.4880          67.16          67.74           7.61
      6245        14.4900          63.82          67.61           7.49
      6246        14.4920          59.33          67.41           7.25
      6247        14.4940          60.52          67.34           7.29
      6248        14.4960          57.38          67.30           7.14
      6249        14.4980          56.35          67.28           7.03
      6250        14.5000          63.22          67.29           7.38
      6251        14.5020          66.93          67.32           7.68
      6252        14.5040          76.38          67.38           8.22
      6253        14.5060          63.16          67.47           7.49
      6254        14.5080          65.78          67.59           7.59
      6255        14.5100          66.00          67.78           7.67
      6256        14.5120          60.85          67.98           7.32
      6257        14.5140          69.38          68.24           7.74
      6258        14.5160          73.02          68.54           8.04
      6259        14.5180          80.96          68.88           8.47
      6260        14.5200          81.23          69.25           8.46
      6261        14.5220          64.72          69.63           7.55
      6262        14.5240          74.22          70.04           8.09
      6263        14.5260          82.80          70.54           8.59
      6264        14.5280          76.22          71.13           8.20
      6265        14.5300          73.53          71.87           8.08
      6266        14.5320          88.16          72.80           8.87
      6267        14.5340          85.46          73.99           8.69
      6268        14.5360          75.17          75.49           8.19
      6269        14.5380          96.33          77.43           9.28
      6270        14.5400          95.48          79.96           9.33
      6271        14.5420          93.82          83.30           9.21
      6272        14.5440         103.41          87.77           9.62
      6273        14.5460         119.33          93.72          10.41
      6274        14.5480         116.63         101.62          10.30
      6275        14.5500         125.12         111.84          10.67
      6276        14.5520         139.72         124.43          11.31
      6277        14.5540         150.94         138.46          11.72
      6278        14.5560         153.56         151.01          11.69
      6279        14.5580         154.30         157.43          11.58
      6280        14.5600         129.55         154.45          10.66
      6281        14.5620         137.49         143.65          10.93
      6282        14.5640         130.10         129.73          10.57
      6283        14.5660         128.41         116.40          10.41
      6284        14.5680         108.43         105.26           9.64
      6285        14.5700         103.78          96.53           9.44
      6286        14.5720          93.75          89.89           8.97
      6287        14.5740          86.63          84.92           8.67
      6288        14.5760          83.35          80.86           8.51
      6289        14.5780          78.10          78.09           8.27
      6290        14.5800          76.04          75.98           8.22
      6291        14.5820          82.43          74.35           8.55
      6292        14.5840          80.79          73.09           8.44
      6293        14.5860          78.26          72.10           8.31
      6294        14.5880          81.16          71.32           8.41
      6295        14.5900          78.68          70.72           8.27
      6296        14.5920          68.57          70.27           7.78
      6297        14.5940          72.82          69.94           7.96
      6298        14.5960          66.12          69.74           7.64
      6299        14.5980          74.77          69.66           8.15
      6300        14.6000          63.83          69.72           7.54
      6301        14.6020          75.91          69.93           8.11
      6302        14.6040          71.65          70.33           7.89
      6303        14.6060          63.93          70.97           7.51
      6304        14.6080          72.65          71.91           8.01
      6305        14.6100          72.59          73.24           8.05
      6306        14.6120          76.96          75.01           8.24
      6307        14.6140          67.95          77.27           7.80
      6308        14.6160          77.53          79.91           8.28
      6309        14.6180          90.64          82.52           8.94
      6310        14.6200          98.16          84.27           9.26
      6311        14.6220          91.15          84.32           9.00
      6312        14.6240          90.89          82.64           8.96
      6313        14.6260          87.45          80.04           8.81
      6314        14.6280          84.89          77.40           8.75
      6315        14.6300          77.38          75.20           8.26
      6316        14.6320          65.09          73.56           7.60
      6317        14.6340          66.97          72.48           7.72
      6318        14.6360          74.57          71.90           8.13
      6319        14.6380          70.95          71.75           7.95
      6320        14.6400          65.93          71.95           7.64
      6321        14.6420          60.76          72.37           7.37
      6322        14.6440          73.94          72.75           8.12
      6323        14.6460          72.03          72.84           8.07
      6324        14.6480          71.27          72.58           7.99
      6325        14.6500          73.09          72.17           8.06
      6326        14.6520          80.46          71.90           8.40
      6327        14.6540          73.40          71.93           8.06
      6328        14.6560          72.61          72.29           8.05
      6329        14.6580          69.85          72.83           7.87
      6330        14.6600          68.88          73.24           7.82
      6331        14.6620          64.32          73.15           7.52
      6332        14.6640          70.57          72.38           7.93
      6333        14.6660          76.22          71.20           8.19
      6334        14.6680          67.02          69.92           7.72
      6335        14.6700          78.50          68.79           8.31
      6336        14.6720          65.48          67.87           7.67
      6337        14.6740          67.83          67.15           7.77
      6338        14.6760          67.28          66.59           7.73
      6339        14.6780          69.56          66.21           7.87
      6340        14.6800          71.37          65.88           7.95
      6341        14.6820          64.00          65.64           7.51
      6342        14.6840          64.19          65.45           7.49
      6343        14.6860          55.83          65.31           7.02
      6344        14.6880          50.54          65.20           6.74
      6345        14.6900          63.13          65.13           7.48
      6346        14.6920          68.21          65.08           7.82
      6347        14.6940          62.04          65.07           7.42
      6348        14.6960          63.40          64.76           7.50
      6349        14.6980          65.19          64.82           7.60
      6350        14.7000          66.46          64.94           7.65
      6351        14.7020          74.86          65.12           8.12
      6352        14.7040          56.40          65.37           7.07
      6353        14.7060          64.01          65.73           7.43
      6354        14.7080          59.88          66.19           7.27
      6355        14.7100          76.93          66.75           8.18
      6356        14.7120          79.12          67.33           8.33
      6357        14.7140          69.82          67.76           7.87
      6358        14.7160          77.18          67.90           8.25
      6359        14.7180          76.42          67.60           8.23
      6360        14.7200          65.16          67.03           7.70
      6361        14.7220          64.81          66.41           7.64
      6362        14.7240          70.61          65.85           7.91
      6363        14.7260          65.67          65.39           7.54
      6364        14.7280          58.72          65.03           7.15
      6365        14.7300          75.33          64.77           8.11
      6366        14.7320          73.50          64.56           8.05
      6367        14.7340          65.70          64.41           7.60
      6368        14.7360          59.51          64.29           7.32
      6369        14.7380          69.39          64.21           7.89
      6370        14.7400          64.79          64.14           7.59
      6371        14.7420          59.26          64.09           7.24
      6372        14.7440          59.68          64.04           7.25
      6373        14.7460          59.24          64.01           7.24
      6374        14.7480          63.41          63.99           7.51
      6375        14.7500          53.68          63.97           6.88
      6376        14.7520          63.16          63.96           7.45
      6377        14.7540          66.75          63.96           7.68
      6378        14.7560          67.57          63.96           7.71
      6379        14.7580          68.10          63.90           7.78
      6380        14.7600          64.79          63.91           7.54
      6381        14.7620          63.57          63.93           7.48
      6382        14.7640          77.87          63.95           8.26
      6383        14.7660          69.93          63.98           7.89
      6384        14.7680          65.13          64.01           7.59
      6385        14.7700          69.23          64.06           7.81
      6386        14.7720          65.29          64.11           7.67
      6387        14.7740          56.22          64.17           7.13
      6388        14.7760          61.93          64.24           7.31
      6389        14.7780          66.48          64.33           7.54
      6390        14.7800          69.43          64.44           7.83
      6391        14.7820          61.62          64.56           7.38
      6392        14.7840          61.02          64.71           7.35
      6393        14.7860          67.01          64.90           7.70
      6394        14.7880          63.08          65.17           7.49
      6395        14.7900          60.63          65.49           7.30
      6396        14.7920          61.93          65.90           7.28
      6397        14.7940          54.96          66.43           6.89
      6398        14.7960          57.54          67.11           7.11
      6399        14.7980          59.69          67.98           7.26
      6400        14.8000          66.48          68.99           7.67
      6401        14.8020          69.40          70.16           7.80
      6402        14.8040          65.16          71.34           7.61
      6403        14.8060          73.73          72.48           8.07
      6404        14.8080          65.15          73.60           7.57
      6405        14.8100          76.84          74.73           8.14
      6406        14.8120          89.91          75.70           8.90
      6407        14.8140          73.86          76.11           8.11
      6408        14.8160          64.38          75.61           7.57
      6409        14.8180          71.64          74.27           7.94
      6410        14.8200          76.87          72.58           8.18
      6411        14.8220          70.12          70.95           7.80
      6412        14.8240          68.56          69.61           7.72
      6413        14.8260          64.86          68.58           7.54
      6414        14.8280          62.94          67.84           7.49
      6415        14.8300          66.83          67.35           7.67
      6416        14.8320          65.94          67.06           7.61
      6417        14.8340          59.13          66.95           7.25
      6418        14.8360          65.75          67.01           7.55
      6419        14.8380          58.69          67.25           7.19
      6420        14.8400          64.70          67.69           7.53
      6421        14.8420          66.97          68.37           7.68
      6422        14.8440          68.12          69.33           7.77
      6423        14.8460          69.54          70.62           7.83
      6424        14.8480          66.36          72.20           7.75
      6425        14.8500          65.97          73.90           7.61
      6426        14.8520          70.70          75.28           7.86
      6427        14.8540          73.19          75.75           8.03
      6428        14.8560          79.78          75.06           8.35
      6429        14.8580          89.25          73.52           8.86
      6430        14.8600          65.60          71.70           7.70
      6431        14.8620          77.02          70.02           8.24
      6432        14.8640          60.64          68.63           7.38
      6433        14.8660          62.18          67.54           7.46
      6434        14.8680          67.95          66.71           7.78
      6435        14.8700          66.79          66.08           7.65
      6436        14.8720          67.86          65.60           7.70
      6437        14.8740          58.18          65.23           7.14
      6438        14.8760          55.29          64.94           6.93
      6439        14.8780          60.94          64.72           7.32
      6440        14.8800          58.12          64.54           7.19
      6441        14.8820          56.84          64.40           7.00
      6442        14.8840          60.76          64.28           7.20
      6443        14.8860          63.95          64.18           7.51
      6444        14.8880          63.95          64.10           7.55
      6445        14.8900          69.59          64.04           7.78
      6446        14.8920          61.95          63.99           7.37
      6447        14.8940          65.02          63.95           7.59
      6448        14.8960          66.54          63.92           7.65
      6449        14.8980          68.25          63.90           7.74
      6450        14.9000          67.19          63.89           7.71
      6451        14.9020          64.79          63.89           7.60
      6452        14.9040          63.24          63.90           7.54
      6453        14.9060          66.29          63.94           7.74
      6454        14.9080          78.92          63.99           8.35
      6455        14.9100          67.72          64.07           7.77
      6456        14.9120          63.33          64.18           7.48
      6457        14.9140          61.34          64.34           7.33
      6458        14.9160          60.95          64.55           7.34
      6459        14.9180          66.52          64.84           7.67
      6460        14.9200          60.66          65.20           7.37
      6461        14.9220          60.58          65.60           7.37
      6462        14.9240          67.15          65.97           7.68
      6463        14.9260          59.59          66.18           7.27
      6464        14.9280          62.31          66.12           7.46
      6465        14.9300          65.56          65.82           7.51
      6466        14.9320          57.00          65.40           7.02
      6467        14.9340          78.86          64.99           8.23
      6468        14.9360          72.22          64.64           7.92
      6469        14.9380          65.28          64.36           7.59
      6470        14.9400          64.04          64.14           7.51
      6471        14.9420          68.41          63.98           7.76
      6472        14.9440          63.63          63.84           7.56
      6473        14.9460          77.19          63.76           8.26
      6474        14.9480          68.52          63.69           7.79
      6475        14.9500          69.69          63.65           7.80
      6476        14.9520          65.72          63.62           7.60
      6477        14.9540          67.00          63.58           7.70
      6478        14.9560          54.95          63.59           6.91
      6479        14.9580          57.42          63.62           7.02
      6480        14.9600          57.47          63.66           7.14
      6481        14.9620          65.16          63.71           7.61
      6482        14.9640          66.25          63.74           7.66
      6483        14.9660          59.86          63.73           7.28
      6484        14.9680          60.88          63.68           7.33
      6485        14.9700          56.80          63.61           7.11
      6486        14.9720          56.07          63.53           7.05
      6487        14.9740          57.18          63.46           7.13
      6488        14.9760          59.79          63.40           7.30
      6489        14.9780          61.39          63.35           7.34
      6490        14.9800          55.25          63.31           6.96
      6491        14.9820          65.21          63.28           7.53
      6492        14.9840          54.12          63.26           6.91
      6493        14.9860          56.35          63.24           7.02
      6494        14.9880          59.68          63.23           7.18
      6495        14.9900          65.59          63.21           7.49
      6496        14.9920          65.10          63.20           7.59
      6497        14.9940          68.02          63.15           7.75
      6498        14.9960          72.17          63.14           7.93
      6499        14.9980          67.59          63.14           7.68
      6500        15.0000          65.45          63.13           7.51
      6501        15.0020          58.26          63.13           7.15
      6502        15.0040          65.19          63.13           7.57
      6503        15.0060          51.37          63.13           6.82
      6504        15.0080          55.49          63.13           7.03
      6505        15.0100          68.49          63.13           7.76
      6506        15.0120          61.74          63.13           7.39
      6507        15.0140          67.32          63.13           7.65
      6508        15.0160          67.17          63.12           7.62
      6509        15.0180          64.58          63.12           7.53
      6510        15.0200          59.81          63.11           7.30
      6511        15.0220          58.51          63.10           7.16
      6512        15.0240          56.54          63.10           7.03
      6513        15.0260          64.66          63.09           7.51
      6514        15.0280          61.55          63.09           7.37
      6515        15.0300          67.52          63.15           7.64
      6516        15.0320          62.17          63.15           7.39
      6517        15.0340          69.63          63.15           7.85
      6518        15.0360          60.57          63.15           7.35
      6519        15.0380          56.72          63.15           7.11
      6520        15.0400          63.93          63.15           7.51
      6521        15.0420          67.26          63.15           7.71
      6522        15.0440          62.83          63.15           7.43
      6523        15.0460          60.24          63.15           7.29
      6524        15.0480          59.04          63.15           7.22
      6525        15.0500          64.52          63.16           7.50
      6526        15.0520          63.79          63.16           7.49
      6527        15.0540          68.44          63.16           7.76
      6528        15.0560          61.94          63.16           7.41
      6529        15.0580          63.01          63.16           7.47
      6530        15.0600          72.61          63.17           8.02
      6531        15.0620          67.15          63.17           7.72
      6532        15.0640          70.12          63.17           7.89
      6533        15.0660          66.66          63.17           7.65
      6534        15.0680          60.52          63.17           7.29
      6535        15.0700          64.11          63.18           7.53
      6536        15.0720          62.92          63.18           7.48
      6537        15.0740          61.60          63.19           7.33
      6538        15.0760          64.21          63.19           7.44
      6539        15.0780          58.48          63.20           7.20
      6540        15.0800          61.54          63.53           7.38
      6541        15.0820          72.22          63.55           8.00
      6542        15.0840          79.38          63.56           8.37
      6543        15.0860          70.93          63.58           7.94
      6544        15.0880          69.29          63.60           7.81
      6545        15.0900          52.99          63.62           6.88
      6546        15.0920          54.24          63.65           6.93
      6547        15.0940          67.64          63.67           7.70
      6548        15.0960          70.41          63.69           7.83
      6549        15.0980          62.06          63.72           7.38
      6550        15.1000          69.25          63.75           7.82
      6551        15.1020          63.45          63.78           7.58
      6552        15.1040          68.47          63.81           7.72
      6553        15.1060          62.76          63.84           7.38
      6554        15.1080          67.06          63.88           7.73
      6555        15.1100          65.29          63.92           7.62
      6556        15.1120          62.88          63.97           7.51
      6557        15.1140          61.09          64.02           7.40
      6558        15.1160          62.54          64.07           7.43
      6559        15.1180          63.35          64.13           7.52
      6560        15.1200          67.64          64.19           7.74
      6561        15.1220          74.41          64.26           8.07
      6562        15.1240          72.06          64.33           8.00
      6563        15.1260          68.90          64.42           7.81
      6564        15.1280          61.89          64.51           7.39
      6565        15.1300          64.03          64.62           7.46
      6566        15.1320          57.88          64.73           7.21
      6567        15.1340          74.69          64.87           8.17
      6568        15.1360          70.84          65.02           7.88
      6569        15.1380          59.77          65.19           7.28
      6570        15.1400          66.20          65.40           7.59
      6571        15.1420          76.91          65.63           8.14
      6572        15.1440          76.42          65.91           8.20
      6573        15.1460          63.16          66.25           7.42
      6574        15.1480          60.42          66.65           7.28
      6575        15.1500          65.13          67.16           7.58
      6576        15.1520          72.00          67.80           7.95
      6577        15.1540          63.93          68.61           7.57
      6578        15.1560          73.36          69.67           8.09
      6579        15.1580          80.31          71.04           8.44
      6580        15.1600          78.97          72.81           8.28
      6581        15.1620          76.70          75.05           8.14
      6582        15.1640          77.26          77.77           8.25
      6583        15.1660          81.42          80.77           8.51
      6584        15.1680          86.05          83.47           8.69
      6585        15.1700          72.35          85.00           8.04
      6586        15.1720          70.72          84.70           7.90
      6587        15.1740          77.45          82.84           8.18
      6588        15.1760          87.88          80.28           8.66
      6589        15.1780          74.43          77.80           8.09
      6590        15.1800          74.33          75.76           8.10
      6591        15.1820          79.19          74.25           8.27
      6592        15.1840          69.56          73.22           7.79
      6593        15.1860          77.71          72.61           8.15
      6594        15.1880          75.97          72.35           8.09
      6595        15.1900          87.88          72.40           8.81
      6596        15.1920          76.31          72.73           8.20
      6597        15.1940          66.56          73.33           7.64
      6598        15.1960          65.58          74.23           7.56
      6599        15.1980          71.93          75.49           7.91
      6600        15.2000          70.40          77.18           7.87
      6601        15.2020          69.87          79.44           7.85
      6602        15.2040          81.23          82.46           8.44
      6603        15.2060          86.89          86.49           8.81
      6604        15.2080          96.53          91.86           9.21
      6605        15.2100          84.00          98.93           8.61
      6606        15.2120          81.86         108.06           8.50
      6607        15.2140         101.78         119.33           9.42
      6608        15.2160         126.52         132.14          10.55
      6609        15.2180         133.17         144.32          10.88
      6610        15.2200         158.35         152.03          11.92
      6611        15.2220         168.60         151.77          12.28
      6612        15.2240         183.09         143.66          12.66
      6613        15.2260         148.53         131.29          11.27
      6614        15.2280         119.13         118.44          10.06
      6615        15.2300          95.30         107.16           9.07
      6616        15.2320          93.18          98.04           8.99
      6617        15.2340          82.26          90.95           8.51
      6618        15.2360          77.11          85.53           8.29
      6619        15.2380          85.43          81.42           8.75
      6620        15.2400          75.62          78.28           8.23
      6621        15.2420          80.55          75.87           8.37
      6622        15.2440          68.21          73.98           7.76
      6623        15.2460          74.64          72.49           8.09
      6624        15.2480          61.67          71.28           7.42
      6625        15.2500          68.60          70.29           7.77
      6626        15.2520          64.96          69.46           7.58
      6627        15.2540          62.74          68.77           7.46
      6628        15.2560          62.02          68.19           7.44
      6629        15.2580          72.05          67.69           8.00
      6630        15.2600          58.81          67.26           7.28
      6631        15.2620          62.51          66.89           7.42
      6632        15.2640          70.05          66.76           7.82
      6633        15.2660          65.45          66.48           7.58
      6634        15.2680          74.22          66.24           8.02
      6635        15.2700          65.30          66.02           7.58
      6636        15.2720          66.24          65.83           7.59
      6637        15.2740          59.66          65.67           7.23
      6638        15.2760          63.48          65.52           7.44
      6639        15.2780          54.72          65.39           6.99
      6640        15.2800          69.64          65.27           7.86
      6641        15.2820          71.74          65.17           7.93
      6642        15.2840          65.82          65.08           7.59
      6643        15.2860          62.58          65.00           7.48
      6644        15.2880          72.99          64.92           7.97
      6645        15.2900          67.09          64.85           7.66
      6646        15.2920          69.16          64.78           7.82
      6647        15.2940          58.59          64.71           7.20
      6648        15.2960          63.11          64.65           7.48
      6649        15.2980          69.22          64.60           7.80
      6650        15.3000          61.24          64.56           7.35
      6651        15.3020          63.35          64.52           7.49
      6652        15.3040          65.53          64.48           7.62
      6653        15.3060          61.90          64.45           7.49
      6654        15.3080          64.16          64.43           7.55
      6655        15.3100          64.09          64.41           7.55
      6656        15.3120          65.87          64.32           7.69
      6657        15.3140          64.01          64.31           7.53
      6658        15.3160          63.23          64.30           7.47
      6659        15.3180          63.52          64.30           7.48
      6660        15.3200          68.04          64.30           7.74
      6661        15.3220          73.03          64.31           7.98
      6662        15.3240          58.47          64.31           7.17
      6663        15.3260          66.10          64.32           7.62
      6664        15.3280          66.91          64.34           7.75
      6665        15.3300          70.82          64.36           7.92
      6666        15.3320          65.41          64.38           7.65
      6667        15.3340          64.65          64.41           7.49
      6668        15.3360          64.60          64.45           7.46
      6669        15.3380          63.07          64.48           7.52
      6670        15.3400          63.27          64.53           7.53
      6671        15.3420          58.16          64.58           7.12
      6672        15.3440          65.38          64.64           7.53
      6673        15.3460          70.90          64.71           7.92
      6674        15.3480          67.97          64.78           7.69
      6675        15.3500          60.99          64.87           7.33
      6676        15.3520          70.14          64.97           7.81
      6677        15.3540          55.77          65.09           7.02
      6678        15.3560          70.89          65.22           7.83
      6679        15.3580          69.51          65.38           7.80
      6680        15.3600          62.87          65.56           7.47
      6681        15.3620          57.17          65.77           7.09
      6682        15.3640          69.50          65.71           7.74
      6683        15.3660          52.30          66.03           6.77
      6684        15.3680          54.91          66.41           6.94
      6685        15.3700          71.93          66.86           7.97
      6686        15.3720          70.90          67.40           7.91
      6687        15.3740          67.35          68.03           7.71
      6688        15.3760          61.37          68.72           7.34
      6689        15.3780          55.50          69.44           7.01
      6690        15.3800          78.72          70.14           8.32
      6691        15.3820          83.70          70.89           8.55
      6692        15.3840          67.15          71.71           7.72
      6693        15.3860          75.50          72.72           8.20
      6694        15.3880          76.64          74.02           8.26
      6695        15.3900          66.93          75.74           7.71
      6696        15.3920          68.93          78.05           7.82
      6697        15.3940          85.21          81.18           8.65
      6698        15.3960          78.37          85.36           8.38
      6699        15.3980          90.49          90.81           8.96
      6700        15.4000          97.66          97.63           9.30
      6701        15.4020         105.74         105.50           9.65
      6702        15.4040         112.89         113.26          10.02
      6703        15.4060         130.41         118.66          10.76
      6704        15.4080         161.82         119.40          11.96
      6705        15.4100         157.91         115.09          11.78
      6706        15.4120         132.67         107.67          10.74
      6707        15.4140          99.96          99.60           9.33
      6708        15.4160          76.61          92.32           8.19
      6709        15.4180          71.47          86.36           7.85
      6710        15.4200          75.71          81.67           8.08
      6711        15.4220          73.28          78.08           8.06
      6712        15.4240          70.32          75.34           7.87
      6713        15.4260          62.48          73.25           7.46
      6714        15.4280          71.35          71.65           7.92
      6715        15.4300          61.76          70.40           7.39
      6716        15.4320          75.05          69.41           8.08
      6717        15.4340          69.06          68.61           7.81
      6718        15.4360          63.66          67.97           7.49
      6719        15.4380          64.59          67.43           7.55
      6720        15.4400          74.26          66.99           8.05
      6721        15.4420          82.37          66.61           8.44
      6722        15.4440          66.72          66.29           7.68
      6723        15.4460          71.35          66.02           7.92
      6724        15.4480          72.74          65.78           7.96
      6725        15.4500          69.14          65.58           7.76
      6726        15.4520          72.04          65.40           8.01
      6727        15.4540          78.33          65.25           8.36
      6728        15.4560          70.74          65.11           7.91
      6729        15.4580          60.58          65.00           7.32
      6730        15.4600          60.33          64.89           7.29
      6731        15.4620          62.10          64.81           7.34
      6732        15.4640          57.54          64.74           7.00
      6733        15.4660          64.55          64.67           7.41
      6734        15.4680          70.48          64.61           7.95
      6735        15.4700          67.91          64.56           7.77
      6736        15.4720          65.30          64.52           7.61
      6737        15.4740          59.05          64.48           7.28
      6738        15.4760          69.34          64.45           7.83
      6739        15.4780          65.35          64.43           7.61
      6740        15.4800          66.48          64.42           7.61
      6741        15.4820          68.95          64.41           7.77
      6742        15.4840          71.75          64.40           7.95
      6743        15.4860          71.24          64.41           7.89
      6744        15.4880          66.16          64.42           7.63
      6745        15.4900          67.93          64.44           7.72
      6746        15.4920          56.78          64.47           7.08
      6747        15.4940          62.15          64.52           7.42
      6748        15.4960          73.31          64.57           8.03
      6749        15.4980          66.21          64.64           7.64
      6750        15.5000          63.09          64.73           7.50
      6751        15.5020          74.13          64.86           8.10
      6752        15.5040          64.89          65.01           7.61
      6753        15.5060          69.29          65.21           7.78
      6754        15.5080          74.96          65.47           8.04
      6755        15.5100          59.03          65.81           7.22
      6756        15.5120          66.17          66.25           7.63
      6757        15.5140          75.26          66.84           8.18
      6758        15.5160          79.71          67.58           8.46
      6759        15.5180          79.61          68.50           8.44
      6760        15.5200          75.31          69.57           8.18
      6761        15.5220          78.35          70.62           8.37
      6762        15.5240          83.89          71.40           8.63
      6763        15.5260          81.61          71.66           8.54
      6764        15.5280          86.19          71.38           8.75
      6765        15.5300          93.23          70.75           9.03
      6766        15.5320          87.03          69.97           8.74
      6767        15.5340          73.19          69.14           8.09
      6768        15.5360          76.71          68.34           8.25
      6769        15.5380          72.49          67.66           8.05
      6770        15.5400          77.22          67.08           8.21
      6771        15.5420          55.63          66.66           7.00
      6772        15.5440          57.49          66.71           7.08
      6773        15.5460          67.56          66.58           7.63
      6774        15.5480          61.23          66.57           7.30
      6775        15.5500          68.36          66.68           7.74
      6776        15.5520          60.84          66.67           7.36
      6777        15.5540          68.21          66.90           7.70
      6778        15.5560          69.10          67.07           7.75
      6779        15.5580          68.01          67.38           7.80
      6780        15.5600          79.08          67.19           8.42
      6781        15.5620          71.68          66.87           7.97
      6782        15.5640          60.58          66.53           7.37
      6783        15.5660          65.31          66.23           7.67
      6784        15.5680          68.57          65.99           7.74
      6785        15.5700          61.66          65.81           7.36
      6786        15.5720          72.82          65.68           7.94
      6787        15.5740          56.52          65.60           7.05
      6788        15.5760          56.79          65.56           7.09
      6789        15.5780          67.21          65.55           7.69
      6790        15.5800          76.10          65.56           8.20
      6791        15.5820          74.88          65.59           8.18
      6792        15.5840          73.12          65.65           8.03
      6793        15.5860          67.84          65.72           7.75
      6794        15.5880          72.01          65.83           7.91
      6795        15.5900          66.23          65.97           7.61
      6796        15.5920          66.13          66.14           7.62
      6797        15.5940          67.00          66.37           7.66
      6798        15.5960          76.07          66.65           8.13
      6799        15.5980          60.59          67.01           7.35
      6800        15.6000          69.54          67.46           7.84
      6801        15.6020          76.77          67.99           8.30
      6802        15.6040          68.57          68.55           7.83
      6803        15.6060          83.77          69.05           8.58
      6804        15.6080          91.90          69.34           9.02
      6805        15.6100          76.57          69.32           8.27
      6806        15.6120          74.23          69.06           8.08
      6807        15.6140          66.93          68.71           7.67
      6808        15.6160          62.66          68.38           7.41
      6809        15.6180          68.45          68.13           7.70
      6810        15.6200          62.67          67.98           7.47
      6811        15.6220          77.57          67.92           8.27
      6812        15.6240          73.70          67.94           8.06
      6813        15.6260          73.17          68.03           8.02
      6814        15.6280          75.10          68.19           8.14
      6815        15.6300          67.20          68.41           7.67
      6816        15.6320          66.08          68.71           7.61
      6817        15.6340          71.12          69.08           7.98
      6818        15.6360          72.92          69.54           8.03
      6819        15.6380          69.13          70.50           7.76
      6820        15.6400          62.82          71.16           7.47
      6821        15.6420          67.44          71.89           7.71
      6822        15.6440          69.63          72.63           7.89
      6823        15.6460          82.54          73.28           8.57
      6824        15.6480          77.05          73.77           8.30
      6825        15.6500          87.82          74.16           8.77
      6826        15.6520          84.41          74.56           8.61
      6827        15.6540          76.06          75.08           8.17
      6828        15.6560          70.72          75.79           7.91
      6829        15.6580          86.39          76.74           8.68
      6830        15.6600          79.39          77.96           8.41
      6831        15.6620          83.53          79.51           8.61
      6832        15.6640          74.97          81.46           8.09
      6833        15.6660          79.80          83.93           8.27
      6834        15.6680          74.57          87.07           8.07
      6835        15.6700          90.45          91.03           8.92
      6836        15.6720          87.92          96.16           8.77
      6837        15.6740          97.98         102.73           9.22
      6838        15.6760         104.78         111.08           9.62
      6839        15.6780         127.39         121.46          10.52
      6840        15.6800         132.83         133.85          10.79
      6841        15.6820         152.98         147.79          11.62
      6842        15.6840         168.41         162.21          12.15
      6843        15.6860         164.41         175.03          12.03
      6844        15.6880         191.62         183.25          13.02
      6845        15.6900         181.31         184.83          12.66
      6846        15.6920         140.63         181.20          11.15
      6847        15.6940         140.25         176.28          11.15
      6848        15.6960         146.82         173.54          11.45
      6849        15.6980         154.73         174.26          11.72
      6850        15.7000         172.65         177.34          12.39
      6851        15.7020         181.46         179.50          12.74
      6852        15.7040         190.46         176.77          13.05
      6853        15.7060         200.32         167.49          13.23
      6854        15.7080         181.79         153.72          12.61
      6855        15.7100         162.54         138.94          11.87
      6856        15.7120         138.01         125.54          10.99
      6857        15.7140         117.33         114.41          10.17
      6858        15.7160          98.49         105.57           9.27
      6859        15.7180          90.16          98.69           8.81
      6860        15.7200          86.71          93.39           8.65
      6861        15.7220          85.45          89.31           8.61
      6862        15.7240          78.96          86.14           8.28
      6863        15.7260          72.16          83.69           8.02
      6864        15.7280          88.65          82.01           8.83
      6865        15.7300          74.87          80.50           8.12
      6866        15.7320          67.33          79.30           7.72
      6867        15.7340          67.63          78.36           7.71
      6868        15.7360          72.00          77.71           7.93
      6869        15.7380          78.83          77.17           8.34
      6870        15.7400          80.37          76.79           8.31
      6871        15.7420          69.46          76.56           7.79
      6872        15.7440          77.79          76.47           8.33
      6873        15.7460          83.47          76.52           8.62
      6874        15.7480          88.21          76.71           8.80
      6875        15.7500          78.66          77.05           8.32
      6876        15.7520          86.60          77.56           8.69
      6877        15.7540          75.54          78.26           8.16
      6878        15.7560          84.50          79.19           8.61
      6879        15.7580          84.89          80.39           8.63
      6880        15.7600          77.98          81.95           8.22
      6881        15.7620          69.06          83.95           7.78
      6882        15.7640          80.71          86.55           8.43
      6883        15.7660          87.64          89.95           8.84
      6884        15.7680          90.86          94.47           8.91
      6885        15.7700          84.33         100.35           8.57
      6886        15.7720         108.16         108.05           9.68
      6887        15.7740          94.42         118.01           9.12
      6888        15.7760         113.41         130.55           9.91
      6889        15.7780         134.14         145.51          10.86
      6890        15.7800         181.06         161.49          12.52
      6891        15.7820         208.68         175.16          13.53
      6892        15.7840         242.64         181.73          14.65
      6893        15.7860         227.17         178.19          14.20
      6894        15.7880         183.68         166.24          12.71
      6895        15.7900         138.22         150.52          11.05
      6896        15.7920         126.40         135.06          10.53
      6897        15.7940         114.35         121.78          10.06
      6898        15.7960         105.03         111.12           9.67
      6899        15.7980          97.33         102.87           9.30
      6900        15.8000          85.38          96.63           8.74
      6901        15.8020          89.94          91.97           8.91
      6902        15.8040          86.99          88.55           8.78
      6903        15.8060          84.91          86.09           8.66
      6904        15.8080          85.21          84.35           8.67
      6905        15.8100          90.80          83.12           8.98
      6906        15.8120          87.55          82.18           8.71
      6907        15.8140          79.55          81.26           8.31
      6908        15.8160          82.62          80.20           8.51
      6909        15.8180          73.87          79.03           8.05
      6910        15.8200          65.96          77.88           7.68
      6911        15.8220          75.40          76.86           8.15
      6912        15.8240          75.37          76.02           8.11
      6913        15.8260          77.40          75.38           8.25
      6914        15.8280          76.26          74.86           8.25
      6915        15.8300          84.19          74.54           8.64
      6916        15.8320          88.22          74.35           8.76
      6917        15.8340          79.66          74.29           8.37
      6918        15.8360          72.24          74.03           8.07
      6919        15.8380          62.56          74.40           7.47
      6920        15.8400          65.02          74.70           7.58
      6921        15.8420          72.66          75.16           8.05
      6922        15.8440          84.67          75.73           8.59
      6923        15.8460          70.21          76.48           7.87
      6924        15.8480          73.40          77.45           8.08
      6925        15.8500          79.51          78.37           8.37
      6926        15.8520          83.68          79.96           8.50
      6927        15.8540          74.17          82.02           8.12
      6928        15.8560          85.02          84.69           8.71
      6929        15.8580          88.76          88.18           8.82
      6930        15.8600          85.37          92.72           8.65
      6931        15.8620          89.83          98.61           8.91
      6932        15.8640          89.03         106.12           8.87
      6933        15.8660         104.18         115.34           9.55
      6934        15.8680         118.82         125.89          10.33
      6935        15.8700         139.52         136.37          11.19
      6936        15.8720         164.46         144.20          12.10
      6937        15.8740         179.36         146.84          12.58
      6938        15.8760         188.04         143.97          12.83
      6939        15.8780         172.95         137.76          12.30
      6940        15.8800         151.09         130.65          11.41
      6941        15.8820         121.04         123.73          10.28
      6942        15.8840         118.79         116.95          10.23
      6943        15.8860         106.44         110.28           9.68
      6944        15.8880          87.07         104.11           8.76
      6945        15.8900          90.59          98.94           8.90
      6946        15.8920          91.67          94.98           8.95
      6947        15.8940          86.17          92.20           8.73
      6948        15.8960          88.61          90.35           8.84
      6949        15.8980          82.34          89.12           8.53
      6950        15.9000          86.82          88.19           8.75
      6951        15.9020          83.99          87.46           8.55
      6952        15.9040          87.46          87.06           8.72
      6953        15.9060          82.01          87.18           8.43
      6954        15.9080          76.97          87.90           8.15
      6955        15.9100          80.90          89.05           8.42
      6956        15.9120          83.15          90.17           8.50
      6957        15.9140          96.05          90.59           9.12
      6958        15.9160          86.70          89.92           8.86
      6959        15.9180          87.97          88.36           8.80
      6960        15.9200          80.05          86.45           8.35
      6961        15.9220          86.95          84.61           8.68
      6962        15.9240          94.94          82.88           9.07
      6963        15.9260          85.59          81.18           8.65
      6964        15.9280          82.16          79.49           8.47
      6965        15.9300          82.98          77.92           8.57
      6966        15.9320          88.58          76.16           8.80
      6967        15.9340          83.99          75.08           8.55
      6968        15.9360          81.98          74.25           8.49
      6969        15.9380          83.32          73.63           8.55
      6970        15.9400          70.21          73.19           7.90
      6971        15.9420          79.84          72.90           8.35
      6972        15.9440          80.88          72.73           8.38
      6973        15.9460          72.56          72.67           7.95
      6974        15.9480          73.53          72.72           8.06
      6975        15.9500          76.60          72.87           8.25
      6976        15.9520          71.53          73.11           7.92
      6977        15.9540          72.31          73.47           7.97
      6978        15.9560          73.63          73.95           8.05
      6979        15.9580          90.00          74.58           8.86
      6980        15.9600          83.54          75.40           8.58
      6981        15.9620          78.99          76.45           8.31
      6982        15.9640          78.63          77.83           8.33
      6983        15.9660          89.82          79.62           8.93
      6984        15.9680          80.48          81.97           8.40
      6985        15.9700          84.56          85.05           8.53
      6986        15.9720          91.25          89.06           8.90
      6987        15.9740          96.85          94.23           9.29
      6988        15.9760         100.06         100.69           9.43
      6989        15.9780          99.94         108.34           9.43
      6990        15.9800          96.82         116.54           9.27
      6991        15.9820         123.66         123.44          10.43
      6992        15.9840         129.36         126.90          10.76
      6993        15.9860         150.77         125.65          11.53
      6994        15.9880         137.58         120.40          11.07
      6995        15.9900         128.54         113.05          10.64
      6996        15.9920         126.92         105.32          10.51
      6997        15.9940         122.42          98.26          10.37
      6998        15.9960         125.43          92.31          10.50
      6999        15.9980          93.88          87.54          13.48
      7000        16.0000          75.57          84.22           8.15
      7001        16.0020          89.95          81.35           8.84
      7002        16.0040          81.81          79.14           8.46
      7003        16.0060          79.22          77.43           8.35
      7004        16.0080          78.64          76.09           8.26
      7005        16.0100          75.81          75.03           8.13
      7006        16.0120          74.11          74.18           8.12
      7007        16.0140          76.41          73.50           8.13
      7008        16.0160          76.30          72.93           8.10
      7009        16.0180          72.91          72.47           7.99
      7010        16.0200          63.31          72.07           7.54
      7011        16.0220          79.61          71.51           8.32
      7012        16.0240          85.98          71.25           8.64
      7013        16.0260          80.11          71.03           8.42
      7014        16.0280          74.46          70.84           8.13
      7015        16.0300          80.21          70.69           8.38
      7016        16.0320          73.98          70.50           8.02
      7017        16.0340          66.17          70.40           7.64
      7018        16.0360          70.53          70.32           7.89
      7019        16.0380          67.28          70.26           7.76
      7020        16.0400          71.37          70.22           7.93
      7021        16.0420          83.56          70.19           8.46
      7022        16.0440          73.64          70.17           8.00
      7023        16.0460          70.89          70.17           7.82
      7024        16.0480          66.77          70.49           7.62
      7025        16.0500          69.37          70.52           7.70
      7026        16.0520          72.40          70.56           7.84
      7027        16.0540          75.12          70.61           8.04
      7028        16.0560          69.24          70.68           7.77
      7029        16.0580          64.28          70.76           7.51
      7030        16.0600          75.40          70.85           8.06
      7031        16.0620          75.00          70.90           8.10
      7032        16.0640          80.52          71.02           8.32
      7033        16.0660          66.95          71.16           7.60
      7034        16.0680          64.84          71.31           7.51
      7035        16.0700          71.82          71.49           7.95
      7036        16.0720          80.40          71.69           8.44
      7037        16.0740          83.29          71.91           8.52
      7038        16.0760          73.71          72.18           8.02
      7039        16.0780          72.50          72.49           7.97
      7040        16.0800          82.02          72.85           8.48
      7041        16.0820          91.92          73.28           8.92
      7042        16.0840          78.20          73.79           8.27
      7043        16.0860          79.12          74.41           8.25
      7044        16.0880          70.68          75.15           7.88
      7045        16.0900          93.11          76.55           9.02
      7046        16.0920          87.12          77.57           8.76
      7047        16.0940          93.62          78.68           9.03
      7048        16.0960          80.62          79.73           8.37
      7049        16.0980          74.96          80.60           8.08
      7050        16.1000          87.97          81.38           8.77
      7051        16.1020          79.96          81.94           8.40
      7052        16.1040          89.55          82.61           8.79
      7053        16.1060          81.90          83.49           8.41
      7054        16.1080          80.82          84.63           8.41
      7055        16.1100          99.23          85.98           9.36
      7056        16.1120          88.81          87.56           8.90
      7057        16.1140          95.65          89.48           9.18
      7058        16.1160          99.02          91.94           9.28
      7059        16.1180          91.67          95.16           8.98
      7060        16.1200          92.63          99.29           9.00
      7061        16.1220          92.01         104.32           8.98
      7062        16.1240          92.09         109.96           9.08
      7063        16.1260         113.83         115.43           9.96
      7064        16.1280         115.85         119.75          10.01
      7065        16.1300         112.47         122.47           9.89
      7066        16.1320         118.64         124.34          10.15
      7067        16.1340         114.60         126.61          10.01
      7068        16.1360         125.83         131.00          10.46
      7069        16.1380         135.50         138.11          10.89
      7070        16.1400         140.41         148.30          11.13
      7071        16.1420         160.97         161.04          11.83
      7072        16.1440         189.58         174.49          12.74
      7073        16.1460         191.24         184.92          12.88
      7074        16.1480         198.73         187.99          13.22
      7075        16.1500         189.14         181.91          12.90
      7076        16.1520         162.80         169.15          12.02
      7077        16.1540         154.85         154.06          11.65
      7078        16.1560         115.56         139.81          10.07
      7079        16.1580         110.18         127.83           9.76
      7080        16.1600          95.39         118.37           9.16
      7081        16.1620          98.11         111.17           9.31
      7082        16.1640         105.65         105.84           9.61
      7083        16.1660          89.36         102.03           8.76
      7084        16.1680          87.12          99.44           8.66
      7085        16.1700         102.26          97.83           9.44
      7086        16.1720          95.98          97.08           9.13
      7087        16.1740          93.75          97.11           9.07
      7088        16.1760         100.52          97.93           9.38
      7089        16.1780          92.70          99.60           8.93
      7090        16.1800          86.19         102.28           8.67
      7091        16.1820         103.35         106.16           9.51
      7092        16.1840         119.86         111.53          10.18
      7093        16.1860          99.18         118.69           9.33
      7094        16.1880         114.32         127.88           9.96
      7095        16.1900         127.18         139.09          10.56
      7096        16.1920         155.85         151.49          11.61
      7097        16.1940         183.45         162.94          12.53
      7098        16.1960         184.60         169.97          12.67
      7099        16.1980         185.34         169.74          12.79
      7100        16.2000         161.58         162.50          12.00
      7101        16.2020         151.63         151.43          11.56
      7102        16.2040         126.93         139.83          10.54
      7103        16.2060         119.26         129.70          10.15
      7104        16.2080          97.77         121.71           9.20
      7105        16.2100          86.15         115.85           8.65
      7106        16.2120          97.64         111.91           9.21
      7107        16.2140         107.00         109.71           9.70
      7108        16.2160         116.69         108.93          10.06
      7109        16.2180         111.25         109.55           9.85
      7110        16.2200          93.47         111.59           8.99
      7111        16.2220         100.05         115.21           9.24
      7112        16.2240         102.35         120.67           9.43
      7113        16.2260         114.67         128.36           9.98
      7114        16.2280         122.71         138.78          10.40
      7115        16.2300         131.96         152.41          10.79
      7116        16.2320         155.44         169.51          11.67
      7117        16.2340         178.78         189.50          12.58
      7118        16.2360         228.54         210.14          14.12
      7119        16.2380         280.82         226.81          15.63
      7120        16.2400         311.47         234.16          16.53
      7121        16.2420         263.00         230.28          15.18
      7122        16.2440         245.12         218.32          14.55
      7123        16.2460         197.84         203.19          13.12
      7124        16.2480         167.96         187.76          12.13
      7125        16.2500         174.90         172.56          12.34
      7126        16.2520         142.27         157.55          11.16
      7127        16.2540         140.50         143.40          11.11
      7128        16.2560         139.95         130.87          11.15
      7129        16.2580         114.19         120.44          10.02
      7130        16.2600         102.48         112.03           9.51
      7131        16.2620         109.43         105.37           9.82
      7132        16.2640         115.72         100.11          10.07
      7133        16.2660         104.14          95.95           9.51
      7134        16.2680          90.43          92.63           8.88
      7135        16.2700          86.19          89.95           8.65
      7136        16.2720          89.32          87.76           8.77
      7137        16.2740          81.18          85.95           8.38
      7138        16.2760          73.02          84.44           8.01
      7139        16.2780          84.01          83.06           8.56
      7140        16.2800          70.72          81.98           7.85
      7141        16.2820          72.76          81.05           7.95
      7142        16.2840          87.17          80.88           8.73
      7143        16.2860          91.67          80.20           8.99
      7144        16.2880          81.26          79.61           8.51
      7145        16.2900          65.38          79.10           7.48
      7146        16.2920          61.32          78.65           7.23
      7147        16.2940          72.32          78.25           7.90
      7148        16.2960          83.22          77.91           8.47
      7149        16.2980          80.50          77.22           8.39
      7150        16.3000          73.56          76.96           8.05
      7151        16.3020          90.22          76.74           8.86
      7152        16.3040          75.58          76.56           8.14
      7153        16.3060          78.35          76.39           8.18
      7154        16.3080          68.36          76.26           7.69
      7155        16.3100          77.78          76.15           8.25
      7156        16.3120          77.07          76.06           8.23
      7157        16.3140          75.30          75.99           8.11
      7158        16.3160          82.84          75.94           8.47
      7159        16.3180          82.17          75.91           8.44
      7160        16.3200          67.95          75.90           7.75
      7161        16.3220          84.06          75.92           8.59
      7162        16.3240          79.96          75.95           8.37
      7163        16.3260          64.20          76.01           7.53
      7164        16.3280          79.57          76.10           8.36
      7165        16.3300          84.61          76.21           8.65
      7166        16.3320          86.96          76.35           8.80
      7167        16.3340          79.98          76.54           8.27
      7168        16.3360          75.91          76.76           8.04
      7169        16.3380          72.29          77.05           7.96
      7170        16.3400          71.19          77.40           7.89
      7171        16.3420          86.15          77.84           8.66
      7172        16.3440          80.90          78.40           8.42
      7173        16.3460          89.06          79.11           8.73
      7174        16.3480          79.78          79.69           8.35
      7175        16.3500          78.11          80.87           8.25
      7176        16.3520          82.33          82.37           8.44
      7177        16.3540          87.71          84.28           8.70
      7178        16.3560          71.68          86.63           7.93
      7179        16.3580          87.05          89.37           8.70
      7180        16.3600          89.03          92.26           8.80
      7181        16.3620         101.09          94.71           9.27
      7182        16.3640          92.92          95.95           8.91
      7183        16.3660          93.92          95.49           8.92
      7184        16.3680          74.64          93.63           8.09
      7185        16.3700          89.56          91.12           8.85
      7186        16.3720          95.11          88.64           9.09
      7187        16.3740          93.79          86.62           9.03
      7188        16.3760         100.36          84.97           9.31
      7189        16.3780          91.44          83.75           8.92
      7190        16.3800          76.33          82.91           8.21
      7191        16.3820          83.48          82.37           8.53
      7192        16.3840          92.02          82.09           8.97
      7193        16.3860          89.07          82.01           8.79
      7194        16.3880          73.57          82.10           7.93
      7195        16.3900          86.38          81.84           8.56
      7196        16.3920          81.18          82.26           8.44
      7197        16.3940          85.86          82.84           8.62
      7198        16.3960          92.72          83.57           8.98
      7199        16.3980          88.13          84.48           8.85
      7200        16.4000          92.85          85.47           9.04
      7201        16.4020         101.27          86.80           9.42
      7202        16.4040          97.82          88.39           9.25
      7203        16.4060          95.09          90.28           9.09
      7204        16.4080         106.55          92.56           9.64
      7205        16.4100         103.30          95.36           9.47
      7206        16.4120         109.03          98.87           9.61
      7207        16.4140         118.47         103.39          10.03
      7208        16.4160         117.22         109.11          10.08
      7209        16.4180         141.73         116.49          10.98
      7210        16.4200         153.29         126.05          11.45
      7211        16.4220         163.24         138.48          11.77
      7212        16.4240         197.94         154.09          12.93
      7213        16.4260         222.23         173.44          13.77
      7214        16.4280         242.25         195.82          14.32
      7215        16.4300         257.36         218.92          14.82
      7216        16.4320         260.92         237.65          15.11
      7217        16.4340         254.64         245.60          15.13
      7218        16.4360         225.49         239.20          14.23
      7219        16.4380         202.09         221.41          13.49
      7220        16.4400         182.12         198.55          12.86
      7221        16.4420         172.54         176.01          12.46
      7222        16.4440         135.72         156.38          10.93
      7223        16.4460         102.59         140.38           9.57
      7224        16.4480         113.59         127.75          10.02
      7225        16.4500          95.94         117.95           9.22
      7226        16.4520          93.30         110.37           9.05
      7227        16.4540          88.47         104.50           8.83
      7228        16.4560          95.51          99.94           9.17
      7229        16.4580          82.21          96.35           8.61
      7230        16.4600          90.20          93.51           8.93
      7231        16.4620          94.01          91.22           9.07
      7232        16.4640          94.40          89.37           9.10
      7233        16.4660          94.22          87.87           9.10
      7234        16.4680          89.86          86.64           8.87
      7235        16.4700          91.05          85.65           8.92
      7236        16.4720          81.82          84.82           8.45
      7237        16.4740          80.06          84.11           8.35
      7238        16.4760          83.37          83.47           8.49
      7239        16.4780          78.48          82.88           8.27
      7240        16.4800          76.48          82.39           8.17
      7241        16.4820          72.63          81.92           7.95
      7242        16.4840          86.08          81.53           8.57
      7243        16.4860          81.67          81.22           8.38
      7244        16.4880          75.72          80.99           8.16
      7245        16.4900          81.96          80.84           8.46
      7246        16.4920          78.88          80.76           8.25
      7247        16.4940          72.37          80.75           7.93
      7248        16.4960          76.48          80.82           8.22
      7249        16.4980          81.22          80.96           8.46
      7250        16.5000          75.35          81.21           8.11
      7251        16.5020          66.68          81.56           7.66
      7252        16.5040          82.34          82.05           8.47
      7253        16.5060          90.14          82.71           8.87
      7254        16.5080          86.46          83.58           8.70
      7255        16.5100          83.20          84.89           8.48
      7256        16.5120          87.02          86.41           8.69
      7257        16.5140          97.33          88.37           9.23
      7258        16.5160          87.78          90.80           8.75
      7259        16.5180          90.26          93.87           8.85
      7260        16.5200          94.15          97.41           9.06
      7261        16.5220         107.07         101.00           9.64
      7262        16.5240         116.03         103.86          10.10
      7263        16.5260         112.27         105.00          10.01
      7264        16.5280         106.17         104.03           9.71
      7265        16.5300         102.56         101.47           9.47
      7266        16.5320          98.03          98.32           9.26
      7267        16.5340          83.30          95.34           8.54
      7268        16.5360          95.22          92.89           9.06
      7269        16.5380          88.91          91.08           8.84
      7270        16.5400          87.61          89.88           8.75
      7271        16.5420          88.16          89.22           8.74
      7272        16.5440          79.45          89.06           8.36
      7273        16.5460          98.42          89.36           9.27
      7274        16.5480          89.25          90.15           8.86
      7275        16.5500          92.10          91.41           8.98
      7276        16.5520          98.27          93.25           9.27
      7277        16.5540         106.70          95.75           9.64
      7278        16.5560         101.89          99.05           9.41
      7279        16.5580          89.77         103.23           8.88
      7280        16.5600         103.61         108.31           9.45
      7281        16.5620          99.24         114.09           9.31
      7282        16.5640         106.29         120.14           9.65
      7283        16.5660         130.28         126.02          10.61
      7284        16.5680         123.51         131.71          10.42
      7285        16.5700         142.74         137.40          11.20
      7286        16.5720         146.94         142.83          11.39
      7287        16.5740         155.80         146.97          11.67
      7288        16.5760         166.50         148.76          12.13
      7289        16.5780         160.55         147.90          11.87
      7290        16.5800         142.79         145.00          11.13
      7291        16.5820         147.29         140.87          11.26
      7292        16.5840         120.66         135.99          10.34
      7293        16.5860         131.47         129.67          10.65
      7294        16.5880         112.04         123.10           9.86
      7295        16.5900         122.77         116.12          10.31
      7296        16.5920         106.97         109.52           9.71
      7297        16.5940          95.54         103.80           9.21
      7298        16.5960         101.90          99.11           9.46
      7299        16.5980         106.02          95.40           9.64
      7300        16.6000          98.17          92.52           9.22
      7301        16.6020          86.66          90.30           8.71
      7302        16.6040          81.57          88.62           8.52
      7303        16.6060          99.70          87.37           9.27
      7304        16.6080          91.96          86.47           8.94
      7305        16.6100          95.42          85.87           9.10
      7306        16.6120          89.60          85.54           8.86
      7307        16.6140          79.46          85.48           8.33
      7308        16.6160          68.69          85.70           7.81
      7309        16.6180          84.98          86.22           8.68
      7310        16.6200          83.15          87.13           8.53
      7311        16.6220          74.66          88.36           8.10
      7312        16.6240          94.57          89.98           9.09
      7313        16.6260          90.11          91.92           8.95
      7314        16.6280         105.12          93.93           9.58
      7315        16.6300         110.29          95.57           9.78
      7316        16.6320          96.77          96.25           9.23
      7317        16.6340         101.21          95.82           9.41
      7318        16.6360          89.35          94.60           8.87
      7319        16.6380          90.18          93.22           8.93
      7320        16.6400          83.70          92.09           8.58
      7321        16.6420         102.42          91.48           9.39
      7322        16.6440          99.98          91.51           9.32
      7323        16.6460          97.53          92.25           9.21
      7324        16.6480         103.06          93.78           9.52
      7325        16.6500         105.44          96.28           9.59
      7326        16.6520          97.06          99.61           9.20
      7327        16.6540         100.71         103.89           9.35
      7328        16.6560         112.90         108.94           9.86
      7329        16.6580         112.31         114.12           9.89
      7330        16.6600         134.40         118.28          10.80
      7331        16.6620         144.56         119.96          11.19
      7332        16.6640         122.20         118.34          10.38
      7333        16.6660         112.14         114.00          10.03
      7334        16.6680         111.89         108.41           9.96
      7335        16.6700         111.54         102.85           9.91
      7336        16.6720          91.96          98.00           9.04
      7337        16.6740          88.78          94.03           8.85
      7338        16.6760          89.86          90.91           8.88
      7339        16.6780          84.20          88.51           8.57
      7340        16.6800          80.07          86.60           8.34
      7341        16.6820          82.10          85.25           8.44
      7342        16.6840          79.87          84.27           8.38
      7343        16.6860          80.91          83.60           8.44
      7344        16.6880          77.90          83.21           8.23
      7345        16.6900          79.40          83.06           8.28
      7346        16.6920          77.46          83.15           8.20
      7347        16.6940          70.40          83.46           7.87
      7348        16.6960          80.61          83.94           8.40
      7349        16.6980          73.73          84.49           8.09
      7350        16.7000          85.35          84.90           8.61
      7351        16.7020          69.64          84.94           7.82
      7352        16.7040          81.01          84.48           8.36
      7353        16.7060          73.85          83.65           8.00
      7354        16.7080          85.51          82.68           8.57
      7355        16.7100          90.98          81.74           8.93
      7356        16.7120          75.99          80.93           8.19
      7357        16.7140          80.49          80.28           8.38
      7358        16.7160          81.80          79.76           8.44
      7359        16.7180          76.99          79.36           8.22
      7360        16.7200          82.37          79.00           8.46
      7361        16.7220          66.64          78.78           7.61
      7362        16.7240          70.18          78.62           7.75
      7363        16.7260          75.40          78.51           8.06
      7364        16.7280          70.19          78.32           7.87
      7365        16.7300          85.69          78.29           8.63
      7366        16.7320          85.69          78.23           8.64
      7367        16.7340          91.96          78.28           8.93
      7368        16.7360          90.18          78.35           8.90
      7369        16.7380          86.50          78.48           8.74
      7370        16.7400          76.74          78.54           8.21
      7371        16.7420          79.49          78.73           8.35
      7372        16.7440          80.85          78.97           8.27
      7373        16.7460          73.52          79.26           7.92
      7374        16.7480          90.66          79.63           8.87
      7375        16.7500          78.64          80.07           8.31
      7376        16.7520          69.61          80.63           7.89
      7377        16.7540          78.72          81.33           8.22
      7378        16.7560          73.74          82.21           7.97
      7379        16.7580          86.91          83.32           8.72
      7380        16.7600          95.13          84.72           9.16
      7381        16.7620          90.81          86.48           8.86
      7382        16.7640          88.73          88.66           8.72
      7383        16.7660          91.56          91.26           8.94
      7384        16.7680         101.57          94.21           9.40
      7385        16.7700          88.86          97.27           8.78
      7386        16.7720         100.79         100.07           9.31
      7387        16.7740          97.93         102.14           9.26
      7388        16.7760          97.99         103.20           9.25
      7389        16.7780         113.17         103.46           9.90
      7390        16.7800         103.44         103.33           9.46
      7391        16.7820          91.62         103.07           8.90
      7392        16.7840         113.47         102.65           9.93
      7393        16.7860          95.15         102.04           9.28
      7394        16.7880          86.78         101.60           8.81
      7395        16.7900         103.06         101.49           9.51
      7396        16.7920         107.90         101.86           9.77
      7397        16.7940         114.37         102.77          10.04
      7398        16.7960         120.22         104.34          10.31
      7399        16.7980         119.81         106.62          10.23
      7400        16.8000         115.32         109.32          10.03
      7401        16.8020         126.84         111.62          10.50
      7402        16.8040         130.42         112.35          10.67
      7403        16.8060         128.18         110.74          10.57
      7404        16.8080         126.67         107.10          10.50
      7405        16.8100          95.54         102.49           9.11
      7406        16.8120          84.90          97.88           8.56
      7407        16.8140          82.92          93.82           8.56
      7408        16.8160         100.55          90.32           9.35
      7409        16.8180          82.00          87.63           8.50
      7410        16.8200          87.99          85.51           8.79
      7411        16.8220          78.12          83.85           8.28
      7412        16.8240          76.27          82.54           8.19
      7413        16.8260          83.15          81.50           8.56
      7414        16.8280          79.62          80.66           8.30
      7415        16.8300          86.43          80.04           8.61
      7416        16.8320          88.51          79.48           8.76
      7417        16.8340          86.25          79.02           8.68
      7418        16.8360          85.06          78.63           8.61
      7419        16.8380          80.09          78.30           8.34
      7420        16.8400          73.78          78.02           8.05
      7421        16.8420          74.43          77.78           8.13
      7422        16.8440          81.24          77.67           8.48
      7423        16.8460          82.44          77.50           8.43
      7424        16.8480          84.07          77.34           8.48
      7425        16.8500          71.61          77.21           7.94
      7426        16.8520          79.88          77.10           8.34
      7427        16.8540          81.13          77.00           8.42
      7428        16.8560          82.62          76.90           8.46
      7429        16.8580          71.51          76.84           7.92
      7430        16.8600          74.99          76.79           8.02
      7431        16.8620          76.95          76.76           8.13
      7432        16.8640          98.20          76.74           9.24
      7433        16.8660         102.04          76.74           9.44
      7434        16.8680          74.11          76.76           8.06
      7435        16.8700          84.56          76.81           8.57
      7436        16.8720          86.84          76.88           8.71
      7437        16.8740          87.54          77.00           8.73
      7438        16.8760          83.32          77.16           8.60
      7439        16.8780          80.69          77.38           8.41
      7440        16.8800          76.86          77.68           8.21
      7441        16.8820          83.00          78.07           8.52
      7442        16.8840          87.51          78.56           8.75
      7443        16.8860          80.73          79.11           8.46
      7444        16.8880          80.01          79.68           8.36
      7445        16.8900          76.62          80.11           8.18
      7446        16.8920          89.50          80.26           8.79
      7447        16.8940          79.99          80.05           8.38
      7448        16.8960          76.98          79.56           8.27
      7449        16.8980          82.87          79.03           8.47
      7450        16.9000          88.47          78.44           8.73
      7451        16.9020          94.40          77.93           9.06
      7452        16.9040          86.66          77.52           8.69
      7453        16.9060          91.93          77.19           8.98
      7454        16.9080          90.65          76.93           8.91
      7455        16.9100          83.92          76.74           8.57
      7456        16.9120          78.36          76.59           8.29
      7457        16.9140          78.85          76.47           8.24
      7458        16.9160          65.38          76.87           7.50
      7459        16.9180          64.28          76.82           7.44
      7460        16.9200          73.81          76.78           7.94
      7461        16.9220          79.83          76.76           8.25
      7462        16.9240          84.66          76.75           8.52
      7463        16.9260          72.97          76.76           7.99
      7464        16.9280          78.52          76.78           8.30
      7465        16.9300          77.82          76.75           8.29
      7466        16.9320          77.75          76.79           8.19
      7467        16.9340          82.60          76.84           8.44
      7468        16.9360          84.99          76.90           8.67
      7469        16.9380          83.39          76.98           8.57
      7470        16.9400          84.57          77.03           8.60
      7471        16.9420          96.02          77.13           9.06
      7472        16.9440          77.12          77.25           8.19
      7473        16.9460          80.60          77.38           8.44
      7474        16.9480          82.69          77.52           8.58
      7475        16.9500          71.27          77.70           7.91
      7476        16.9520          67.76          77.90           7.72
      7477        16.9540          86.18          78.14           8.66
      7478        16.9560          84.10          78.42           8.50
      7479        16.9580          65.98          78.75           7.59
      7480        16.9600          71.95          79.08           7.97
      7481        16.9620          97.53          79.55           9.22
      7482        16.9640          87.76          80.13           8.77
      7483        16.9660          79.50          80.84           8.36
      7484        16.9680          87.37          81.72           8.72
      7485        16.9700          89.65          82.82           8.77
      7486        16.9720          77.48          84.20           8.29
      7487        16.9740          94.32          85.90           9.11
      7488        16.9760          85.75          87.97           8.67
      7489        16.9780          91.99          90.41           8.92
      7490        16.9800          87.31          93.11           8.68
      7491        16.9820          83.03          95.81           8.47
      7492        16.9840          91.26          98.08           8.89
      7493        16.9860          94.31          99.64           9.06
      7494        16.9880         100.92         100.62           9.34
      7495        16.9900         103.19         101.53           9.41
      7496        16.9920          95.28         102.88           9.12
      7497        16.9940          96.91         104.89           9.19
      7498        16.9960         103.02         107.29           9.45
      7499        16.9980         100.44         109.32           9.42
      7500        17.0000         114.90         109.93           9.99
      7501        17.0020          91.99         108.51           8.98
      7502        17.0040          89.57         105.39           8.80
      7503        17.0060          95.70         101.47           9.14
      7504        17.0080         109.58          97.62           9.86
      7505        17.0100          95.07          94.28           9.25
      7506        17.0120         109.64          91.59           9.86
      7507        17.0140          92.04          89.52           9.02
      7508        17.0160          89.54          87.98           8.90
      7509        17.0180          95.72          86.88           9.22
      7510        17.0200         106.75          86.15           9.62
      7511        17.0220          95.28          85.71           9.18
      7512        17.0240          77.54          85.52           8.35
      7513        17.0260          88.64          85.56           8.74
      7514        17.0280          79.34          85.80           8.32
      7515        17.0300          79.60          86.26           8.35
      7516        17.0320          95.68          86.93           9.12
      7517        17.0340          87.56          87.86           8.74
      7518        17.0360          80.81          89.09           8.39
      7519        17.0380          87.14          90.67           8.74
      7520        17.0400          79.15          92.90           8.38
      7521        17.0420         100.73          95.45           9.36
      7522        17.0440          91.82          98.61           8.92
      7523        17.0460         102.38         102.47           9.38
      7524        17.0480          98.39         107.00           9.32
      7525        17.0500         105.35         112.02           9.57
      7526        17.0520         117.27         117.13          10.07
      7527        17.0540         117.91         121.97          10.15
      7528        17.0560         117.77         126.75          10.07
      7529        17.0580         128.70         132.07          10.51
      7530        17.0600         125.24         139.05          10.43
      7531        17.0620         115.29         148.56          10.01
      7532        17.0640         129.23         160.93          10.58
      7533        17.0660         151.42         175.79          11.40
      7534        17.0680         166.12         191.29          11.94
      7535        17.0700         190.27         203.74          12.77
      7536        17.0720         224.99         208.64          13.94
      7537        17.0740         227.70         203.60          14.16
      7538        17.0760         224.05         190.44          14.13
      7539        17.0780         197.60         173.54          13.16
      7540        17.0800         180.35         156.65          12.52
      7541        17.0820         131.52         141.79          10.78
      7542        17.0840         115.14         129.57          10.06
      7543        17.0860         111.04         119.82           9.83
      7544        17.0880          99.27         112.21           9.32
      7545        17.0900          88.74         106.31           8.85
      7546        17.0920          97.42         101.77           9.19
      7547        17.0940          80.19          98.29           8.42
      7548        17.0960          99.65          95.64           9.30
      7549        17.0980          86.08          93.67           8.72
      7550        17.1000          97.69          92.26           9.22
      7551        17.1020          96.74          91.35           9.18
      7552        17.1040          90.57          90.91           8.94
      7553        17.1060          96.89          90.91           9.22
      7554        17.1080          99.41          91.33           9.35
      7555        17.1100          94.82          92.13           9.08
      7556        17.1120          87.26          93.11           8.64
      7557        17.1140          86.93          93.97           8.66
      7558        17.1160          98.83          94.29           9.23
      7559        17.1180          96.34          93.84           9.13
      7560        17.1200          83.69          92.76           8.58
      7561        17.1220          89.31          91.42           8.80
      7562        17.1240          79.99          90.11           8.34
      7563        17.1260          76.62          88.90           8.16
      7564        17.1280          75.95          87.73           8.13
      7565        17.1300          81.43          86.54           8.43
      7566        17.1320          94.88          85.37           9.18
      7567        17.1340          88.84          84.31           8.78
      7568        17.1360          76.33          83.43           8.10
      7569        17.1380          76.29          82.76           8.18
      7570        17.1400          83.71          82.29           8.54
      7571        17.1420          74.76          81.97           8.09
      7572        17.1440          75.93          81.90           8.11
      7573        17.1460          76.47          82.01           8.12
      7574        17.1480          86.32          82.32           8.64
      7575        17.1500          84.06          82.84           8.52
      7576        17.1520          74.06          83.57           7.98
      7577        17.1540          83.46          84.49           8.43
      7578        17.1560          70.90          85.49           7.93
      7579        17.1580          94.35          86.29           9.03
      7580        17.1600          76.97          86.86           8.13
      7581        17.1620          82.43          86.94           8.43
      7582        17.1640          93.91          86.65           9.01
      7583        17.1660          87.47          86.21           8.72
      7584        17.1680          80.12          85.87           8.44
      7585        17.1700          88.10          85.79           8.78
      7586        17.1720          89.54          86.03           8.80
      7587        17.1740          90.42          86.64           8.78
      7588        17.1760          84.94          87.67           8.52
      7589        17.1780          79.46          89.19           8.35
      7590        17.1800          83.40          91.32           8.50
      7591        17.1820         100.50          94.17           9.27
      7592        17.1840         102.64          97.91           9.47
      7593        17.1860          94.12         102.74           9.11
      7594        17.1880         108.15         108.79           9.65
      7595        17.1900         118.92         116.09          10.12
      7596        17.1920         127.86         124.27          10.55
      7597        17.1940         142.00         132.20          11.06
      7598        17.1960         159.42         138.03          11.69
      7599        17.1980         174.97         139.99          12.32
      7600        17.2000         173.58         137.73          12.36
      7601        17.2020         149.66         132.75          11.52
      7602        17.2040         135.26         127.10          10.86
      7603        17.2060         121.07         122.26          10.27
      7604        17.2080         112.02         118.69           9.97
      7605        17.2100         115.21         116.10          10.06
      7606        17.2120         115.28         113.59          10.03
      7607        17.2140         119.42         110.46          10.17
      7608        17.2160         107.32         106.41           9.70
      7609        17.2180         105.22         101.82           9.63
      7610        17.2200         101.74          97.39           9.48
      7611        17.2220          94.46          93.39           9.11
      7612        17.2240          94.81          90.03           9.13
      7613        17.2260          93.29          87.28           9.12
      7614        17.2280          95.59          85.07           9.22
      7615        17.2300         100.39          82.82           9.39
      7616        17.2320          90.84          81.39           8.94
      7617        17.2340          78.41          80.23           8.34
      7618        17.2360          71.04          79.27           7.92
      7619        17.2380          73.85          78.48           8.00
      7620        17.2400          75.80          77.82           8.12
      7621        17.2420          75.90          77.26           8.18
      7622        17.2440          88.39          76.78           8.76
      7623        17.2460          86.32          76.36           8.66
      7624        17.2480          71.34          76.00           7.86
      7625        17.2500          73.13          75.68           7.90
      7626        17.2520          69.60          75.40           7.80
      7627        17.2540          74.57          75.15           8.07
      7628        17.2560          84.35          74.92           8.55
      7629        17.2580          83.71          74.73           8.56
      7630        17.2600          77.18          74.55           8.26
      7631        17.2620          79.57          74.38           8.28
      7632        17.2640          82.40          74.27           8.46
      7633        17.2660          86.21          74.13           8.65
      7634        17.2680          76.93          74.01           8.19
      7635        17.2700          79.92          73.91           8.33
      7636        17.2720          70.55          73.81           7.84
      7637        17.2740          73.98          73.67           7.99
      7638        17.2760          69.96          73.59           7.74
      7639        17.2780          54.32          73.52           6.90
      7640        17.2800          77.06          73.45           8.12
      7641        17.2820          77.52          73.39           8.20
      7642        17.2840          63.05          73.34           7.43
      7643        17.2860          76.86          73.28           8.12
      7644        17.2880          69.60          73.24           7.76
      7645        17.2900          63.56          73.21           7.45
      7646        17.2920          84.78          73.18           8.60
      7647        17.2940          87.65          73.16           8.74
      7648        17.2960          75.95          73.14           8.22
      7649        17.2980          80.09          73.14           8.43
      7650        17.3000          82.75          73.38           8.43
      7651        17.3020          74.83          73.39           8.05
      7652        17.3040          81.94          73.41           8.54
      7653        17.3060          88.73          73.44           8.84
      7654        17.3080          86.12          73.49           8.67
      7655        17.3100          68.27          73.54           7.68
      7656        17.3120          77.45          73.62           8.11
      7657        17.3140          75.22          73.71           8.09
      7658        17.3160          77.03          73.82           8.14
      7659        17.3180          70.98          74.07           7.86
      7660        17.3200          82.42          74.22           8.48
      7661        17.3220          86.14          74.44           8.64
      7662        17.3240          69.66          74.72           7.82
      7663        17.3260          80.28          75.07           8.39
      7664        17.3280          74.16          75.50           7.97
      7665        17.3300          68.65          76.04           7.72
      7666        17.3320          81.00          76.69           8.37
      7667        17.3340          70.17          77.46           7.79
      7668        17.3360          66.90          78.33           7.58
      7669        17.3380          65.64          79.22           7.49
      7670        17.3400          78.95          80.11           8.25
      7671        17.3420          82.90          81.00           8.63
      7672        17.3440          89.00          81.95           8.86
      7673        17.3460          94.54          82.97           9.11
      7674        17.3480          78.45          83.97           8.27
      7675        17.3500          77.53          84.73           8.18
      7676        17.3520          75.29          85.06           8.12
      7677        17.3540          71.24          85.00           7.93
      7678        17.3560          74.15          84.51           8.03
      7679        17.3580          80.64          84.17           8.39
      7680        17.3600          76.63          83.83           8.22
      7681        17.3620          77.30          83.58           8.23
      7682        17.3640          90.18          83.39           8.86
      7683        17.3660          80.72          83.48           8.44
      7684        17.3680          95.28          83.97           9.06
      7685        17.3700          89.24          84.90           8.83
      7686        17.3720          84.88          86.12           8.64
      7687        17.3740          89.38          87.58           8.81
      7688        17.3760          86.20          88.79           8.76
      7689        17.3780         115.92          89.59          10.02
      7690        17.3800          96.47          88.97           9.16
      7691        17.3820         106.58          87.46           9.63
      7692        17.3840         101.35          85.54           9.37
      7693        17.3860          75.84          83.64           8.05
      7694        17.3880          75.37          81.97           8.07
      7695        17.3900          86.60          80.72           8.72
      7696        17.3920          87.47          79.68           8.68
      7697        17.3940          77.21          78.92           8.20
      7698        17.3960          85.25          78.39           8.61
      7699        17.3980          96.03          78.05           9.14
      7700        17.4000          90.84          77.89           8.84
      7701        17.4020          76.66          77.87           8.10
      7702        17.4040          87.26          78.00           8.63
      7703        17.4060          80.40          78.27           8.39
      7704        17.4080          82.22          78.71           8.45
      7705        17.4100          91.32          79.32           8.87
      7706        17.4120          78.89          80.13           8.33
      7707        17.4140          80.94          81.15           8.35
      7708        17.4160          85.38          82.36           8.55
      7709        17.4180          86.54          83.67           8.69
      7710        17.4200          90.18          84.87           8.89
      7711        17.4220          94.72          85.69           9.08
      7712        17.4240          85.34          85.98           8.63
      7713        17.4260          84.14          85.80           8.57
      7714        17.4280          86.21          85.44           8.61
      7715        17.4300          74.82          85.15           8.05
      7716        17.4320          99.49          85.13           9.25
      7717        17.4340          82.43          85.45           8.59
      7718        17.4360          85.85          86.19           8.69
      7719        17.4380          77.36          87.39           8.25
      7720        17.4400          80.59          89.13           8.38
      7721        17.4420          96.96          91.50           9.15
      7722        17.4440          92.04          94.67           8.87
      7723        17.4460          77.53          98.78           8.17
      7724        17.4480          98.64         104.05           9.20
      7725        17.4500         102.86         110.65           9.44
      7726        17.4520          95.81         118.57           9.15
      7727        17.4540         108.82         127.48           9.71
      7728        17.4560         129.04         136.30          10.57
      7729        17.4580         144.49         143.14          11.20
      7730        17.4600         160.44         146.02          11.80
      7731        17.4620         165.50         144.33          12.07
      7732        17.4640         149.73         139.40          11.46
      7733        17.4660         132.58         133.48          10.76
      7734        17.4680         131.00         128.29          10.69
      7735        17.4700         123.68         124.63          10.48
      7736        17.4720         121.16         122.44          10.25
      7737        17.4740         127.30         121.01          10.46
      7738        17.4760         116.40         119.28          10.06
      7739        17.4780         115.21         116.37          10.02
      7740        17.4800         104.64         112.21           9.61
      7741        17.4820         100.32         107.43           9.32
      7742        17.4840         104.84         102.80           9.53
      7743        17.4860          98.95          98.75           9.27
      7744        17.4880          89.96          95.48           8.84
      7745        17.4900          97.56          93.01           9.17
      7746        17.4920          91.53          91.15           8.98
      7747        17.4940          98.66          89.87           9.36
      7748        17.4960          84.89          89.09           8.59
      7749        17.4980          85.60          88.76           8.55
      7750        17.5000          84.86          88.82           8.58
      7751        17.5020          83.61          89.30           8.49
      7752        17.5040          87.75          90.19           8.66
      7753        17.5060          81.85          91.54           8.47
      7754        17.5080          90.31          93.40           8.96
      7755        17.5100         115.44          95.86          10.01
      7756        17.5120          88.74          98.99           8.78
      7757        17.5140         101.40         102.95           9.38
      7758        17.5160         109.69         107.73           9.78
      7759        17.5180         105.25         113.18           9.60
      7760        17.5200         116.91         118.97          10.10
      7761        17.5220         121.49         124.80          10.17
      7762        17.5240         120.07         130.75          10.20
      7763        17.5260         131.56         137.46          10.72
      7764        17.5280         132.99         145.74          10.80
      7765        17.5300         166.79         155.94          12.06
      7766        17.5320         176.04         167.46          12.37
      7767        17.5340         189.70         178.29          12.85
      7768        17.5360         204.21         185.30          13.34
      7769        17.5380         207.60         185.89          13.46
      7770        17.5400         192.03         180.19          12.89
      7771        17.5420         163.70         170.78          11.89
      7772        17.5440         147.12         160.71          11.36
      7773        17.5460         155.75         151.73          11.63
      7774        17.5480         136.96         144.06          10.96
      7775        17.5500         132.43         136.96          10.75
      7776        17.5520         135.96         129.62          10.85
      7777        17.5540         130.35         121.95          10.73
      7778        17.5560         134.37         114.62          10.86
      7779        17.5580         127.90         107.82          10.57
      7780        17.5600         110.06         102.03           9.87
      7781        17.5620          96.29          97.24           9.25
      7782        17.5640          91.22          93.37           9.02
      7783        17.5660         102.25          90.24           9.52
      7784        17.5680          89.96          87.70           8.88
      7785        17.5700          90.79          85.62           8.87
      7786        17.5720          82.78          83.91           8.54
      7787        17.5740          80.30          82.50           8.42
      7788        17.5760          81.54          81.31           8.43
      7789        17.5780          65.87          80.32           7.60
      7790        17.5800          71.59          79.49           7.89
      7791        17.5820          78.95          78.79           8.24
      7792        17.5840          79.28          78.17           8.24
      7793        17.5860          76.47          77.67           8.17
      7794        17.5880          65.59          77.28           7.61
      7795        17.5900          73.64          76.96           8.02
      7796        17.5920          82.54          76.71           8.46
      7797        17.5940          78.98          76.55           8.30
      7798        17.5960          77.19          76.46           8.29
      7799        17.5980          80.61          76.47           8.40
      7800        17.6000          74.68          76.57           7.97
      7801        17.6020          63.79          76.77           7.42
      7802        17.6040          78.20          77.06           8.24
      7803        17.6060          69.44          77.42           7.79
      7804        17.6080          76.91          77.76           8.15
      7805        17.6100          80.34          78.01           8.40
      7806        17.6120          70.72          78.11           7.92
      7807        17.6140          84.49          78.05           8.59
      7808        17.6160          80.40          77.85           8.38
      7809        17.6180          80.46          77.54           8.31
      7810        17.6200          68.10          76.93           7.68
      7811        17.6220          60.83          76.58           7.31
      7812        17.6240          81.67          76.30           8.36
      7813        17.6260          87.85          76.14           8.68
      7814        17.6280          64.12          76.13           7.46
      7815        17.6300          70.24          76.27           7.75
      7816        17.6320          72.92          76.58           7.96
      7817        17.6340          73.91          77.10           8.06
      7818        17.6360          81.53          77.84           8.44
      7819        17.6380          72.65          78.76           7.99
      7820        17.6400          81.32          80.07           8.39
      7821        17.6420          76.34          81.68           8.18
      7822        17.6440          81.24          83.51           8.33
      7823        17.6460          81.72          85.33           8.40
      7824        17.6480          89.35          86.71           8.93
      7825        17.6500         102.02          87.20           9.49
      7826        17.6520          92.82          86.58           9.03
      7827        17.6540          80.71          85.10           8.45
      7828        17.6560          92.79          83.23           9.03
      7829        17.6580          94.36          81.38           9.08
      7830        17.6600          71.29          79.76           7.93
      7831        17.6620          73.53          78.42           7.96
      7832        17.6640          67.70          77.37           7.71
      7833        17.6660          83.12          76.58           8.51
      7834        17.6680          78.96          75.98           8.23
      7835        17.6700          67.51          75.54           7.71
      7836        17.6720          72.97          75.24           8.00
      7837        17.6740          75.80          75.11           8.15
      7838        17.6760          79.92          75.01           8.33
      7839        17.6780          67.92          75.00           7.76
      7840        17.6800          74.17          75.06           8.11
      7841        17.6820          77.54          75.20           8.24
      7842        17.6840          80.91          75.35           8.39
      7843        17.6860          81.17          75.77           8.40
      7844        17.6880          74.04          76.18           8.03
      7845        17.6900          73.54          76.70           8.01
      7846        17.6920          76.11          77.36           8.11
      7847        17.6940          62.93          78.20           7.46
      7848        17.6960          81.42          79.27           8.43
      7849        17.6980          81.22          80.26           8.47
      7850        17.7000          82.12          82.01           8.48
      7851        17.7020          67.29          84.28           7.75
      7852        17.7040          76.92          87.13           8.20
      7853        17.7060          92.62          90.70           8.99
      7854        17.7080         106.08          95.11           9.58
      7855        17.7100          92.96         100.34           9.01
      7856        17.7120         114.68         105.99           9.87
      7857        17.7140         112.23         111.44           9.80
      7858        17.7160         112.41         115.28           9.87
      7859        17.7180         120.86         116.18          10.23
      7860        17.7200         129.74         113.82          10.64
      7861        17.7220         126.17         109.12          10.47
      7862        17.7240         128.15         103.52          10.56
      7863        17.7260         129.96          98.13          10.72
      7864        17.7280         120.88          93.47          10.36
      7865        17.7300          89.54          89.69           9.00
      7866        17.7320          88.57          86.73           8.89
      7867        17.7340          84.70          84.46           8.69
      7868        17.7360          89.31          82.75           8.82
      7869        17.7380          92.11          81.47           8.96
      7870        17.7400          81.31          80.56           8.53
      7871        17.7420          75.97          79.95           8.24
      7872        17.7440          78.37          79.56           8.33
      7873        17.7460          77.61          79.29           8.30
      7874        17.7480          79.99          79.00           8.39
      7875        17.7500          85.75          78.56           8.63
      7876        17.7520          68.48          77.92           7.76
      7877        17.7540          88.06          77.16           8.69
      7878        17.7560          81.79          76.40           8.44
      7879        17.7580          76.15          75.70           8.04
      7880        17.7600          66.88          75.10           7.61
      7881        17.7620          74.46          74.61           8.06
      7882        17.7640          82.61          74.21           8.45
      7883        17.7660          76.14          73.89           8.21
      7884        17.7680          78.50          73.64           8.33
      7885        17.7700          69.68          73.44           7.80
      7886        17.7720          78.15          73.28           8.18
      7887        17.7740          68.36          73.16           7.77
      7888        17.7760          66.41          73.08           7.62
      7889        17.7780          79.45          73.02           8.26
      7890        17.7800          70.48          72.99           7.85
      7891        17.7820          69.60          72.98           7.79
      7892        17.7840          63.67          72.99           7.47
      7893        17.7860          65.37          73.03           7.54
      7894        17.7880          76.16          73.09           8.15
      7895        17.7900          82.25          73.17           8.46
      7896        17.7920          78.78          73.27           8.25
      7897        17.7940          70.43          73.40           7.87
      7898        17.7960          84.00          73.56           8.58
      7899        17.7980          76.83          73.75           8.18
      7900        17.8000          74.04          73.98           8.02
      7901        17.8020          75.71          74.26           8.16
      7902        17.8040          70.69          74.60           7.74
      7903        17.8060          66.97          75.00           7.56
      7904        17.8080          85.47          75.48           8.61
      7905        17.8100          94.98          76.07           9.12
      7906        17.8120          87.71          76.72           8.85
      7907        17.8140          92.57          77.57           9.03
      7908        17.8160          90.58          78.58           8.90
      7909        17.8180          75.58          79.79           8.14
      7910        17.8200          86.03          81.22           8.61
      7911        17.8220          77.12          82.92           8.25
      7912        17.8240          77.14          84.90           8.23
      7913        17.8260          76.85          87.20           8.17
      7914        17.8280          82.96          89.80           8.48
      7915        17.8300          82.16          92.73           8.53
      7916        17.8320          94.15          95.98           9.04
      7917        17.8340          82.59          99.44           8.47
      7918        17.8360          93.37         102.81           8.96
      7919        17.8380         106.39         105.77           9.60
      7920        17.8400         113.24         108.39           9.88
      7921        17.8420         111.55         110.69           9.85
      7922        17.8440         121.36         112.80          10.32
      7923        17.8460         110.15         114.21           9.89
      7924        17.8480         101.06         114.12           9.47
      7925        17.8500         103.38         112.12           9.53
      7926        17.8520         123.53         108.67          10.36
      7927        17.8540         110.90         104.72           9.91
      7928        17.8560          85.85         101.11           8.71
      7929        17.8580          78.44          98.26           8.27
      7930        17.8600          92.27          96.17           8.96
      7931        17.8620          92.31          94.55           8.98
      7932        17.8640          86.56          92.98           8.66
      7933        17.8660          88.06          91.09           8.74
      7934        17.8680          79.18          88.84           8.28
      7935        17.8700          81.36          86.44           8.39
      7936        17.8720          90.45          84.15           8.89
      7937        17.8740          77.68          82.13           8.31
      7938        17.8760          76.01          80.44           8.17
      7939        17.8780          74.83          79.05           8.16
      7940        17.8800          70.49          77.75           7.94
      7941        17.8820          78.60          76.84           8.27
      7942        17.8840          79.71          76.10           8.32
      7943        17.8860          78.60          75.50           8.33
      7944        17.8880          83.20          75.02           8.52
      7945        17.8900          78.53          74.62           8.30
      7946        17.8920          88.49          74.29           8.78
      7947        17.8940          69.65          74.02           7.85
      7948        17.8960          73.83          73.81           8.03
      7949        17.8980          76.49          73.68           8.15
      7950        17.9000          81.57          73.55           8.39
      7951        17.9020          78.17          73.47           8.30
      7952        17.9040          71.62          73.44           7.96
      7953        17.9060          79.13          73.45           8.31
      7954        17.9080          83.36          73.51           8.52
      7955        17.9100          76.47          73.62           8.16
      7956        17.9120          65.63          73.77           7.59
      7957        17.9140          72.53          73.95           7.93
      7958        17.9160          80.94          74.11           8.40
      7959        17.9180          73.32          74.18           8.05
      7960        17.9200          74.97          74.13           8.09
      7961        17.9220          74.51          73.94           8.10
      7962        17.9240          76.50          73.68           8.19
      7963        17.9260          88.53          73.41           8.73
      7964        17.9280          74.99          73.15           8.12
      7965        17.9300          71.08          72.94           7.90
      7966        17.9320          83.55          72.77           8.48
      7967        17.9340          84.22          72.64           8.54
      7968        17.9360          68.25          72.54           7.80
      7969        17.9380          75.38          72.46           8.14
      7970        17.9400          79.82          72.42           8.37
      7971        17.9420          81.41          72.39           8.38
      7972        17.9440          75.33          72.38           8.04
      7973        17.9460          72.93          72.38           7.92
      7974        17.9480          85.03          72.40           8.55
      7975        17.9500          75.64          72.44           8.14
      7976        17.9520          71.21          72.49           7.88
      7977        17.9540          76.56          72.55           8.21
      7978        17.9560          82.52          72.64           8.49
      7979        17.9580          71.02          72.74           7.87
      7980        17.9600          84.72          72.87           8.56
      7981        17.9620          74.46          73.01           8.12
      7982        17.9640          76.46          73.20           8.16
      7983        17.9660          70.80          73.54           7.84
      7984        17.9680          68.19          73.73           7.74
      7985        17.9700          74.43          73.94           8.05
      7986        17.9720          78.82          74.17           8.26
      7987        17.9740          89.17          74.45           8.80
      7988        17.9760          89.15          74.78           8.90
      7989        17.9780          80.15          75.21           8.45
      7990        17.9800          72.94          75.76           7.95
      7991        17.9820          66.69          76.44           7.63
      7992        17.9840          64.72          77.29           7.55
      7993        17.9860          63.04          78.37           7.45
      7994        17.9880          78.29          79.71           8.26
      7995        17.9900          76.97          81.37           8.18
      7996        17.9920          82.11          83.39           8.40
      7997        17.9940          88.44          85.81           8.73
      7998        17.9960          90.01          88.62           8.86
      7999        17.9980          83.98          91.63           8.53
      8000        18.0000          92.12          94.40           8.97
      8001        18.0020         114.57          96.18           9.95
      8002        18.0040         106.52          96.43           9.65
      8003        18.0060          91.79          94.99           8.88
      8004        18.0080          95.34          92.37           9.02
      8005        18.0100         104.53          89.31           9.54
      8006        18.0120         100.70          86.26           9.36
      8007        18.0140          82.89          83.72           8.45
      8008        18.0160          80.50          81.70           8.40
      8009        18.0180          71.80          80.03           7.84
      8010        18.0200          75.22          78.72           8.08
      8011        18.0220          68.48          77.71           7.68
      8012        18.0240          65.21          76.94           7.54
      8013        18.0260          86.66          76.34           8.62
      8014        18.0280          72.56          75.90           7.86
      8015        18.0300          68.64          75.53           7.74
      8016        18.0320          77.31          75.30           8.19
      8017        18.0340          85.56          75.16           8.64
      8018        18.0360          71.96          75.09           7.87
      8019        18.0380          72.29          75.10           7.93
      8020        18.0400          72.91          75.19           7.92
      8021        18.0420          89.02          75.37           8.77
      8022        18.0440          81.82          75.65           8.43
      8023        18.0460          74.51          76.05           8.09
      8024        18.0480          72.88          76.65           7.97
      8025        18.0500          73.32          77.36           8.01
      8026        18.0520          75.31          78.26           7.97
      8027        18.0540          74.77          79.37           8.05
      8028        18.0560          85.32          80.63           8.65
      8029        18.0580          80.71          81.91           8.29
      8030        18.0600          69.56          82.96           7.76
      8031        18.0620          91.69          83.45           8.91
      8032        18.0640          90.40          83.23           8.78
      8033        18.0660          84.90          82.37           8.59
      8034        18.0680          84.35          81.19           8.53
      8035        18.0700          94.77          79.96           9.18
      8036        18.0720          85.04          78.86           8.61
      8037        18.0740          75.26          77.95           8.02
      8038        18.0760          84.34          77.25           8.56
      8039        18.0780          80.30          76.72           8.44
      8040        18.0800          79.53          76.41           8.26
      8041        18.0820          85.95          76.16           8.67
      8042        18.0840          78.34          76.01           8.27
      8043        18.0860          76.80          75.96           8.17
      8044        18.0880          75.45          75.98           8.19
      8045        18.0900          71.07          76.08           7.92
      8046        18.0920          62.08          76.25           7.37
      8047        18.0940          78.86          76.49           8.32
      8048        18.0960          90.49          76.81           8.87
      8049        18.0980          97.92          77.21           9.22
      8050        18.1000          85.53          77.71           8.57
      8051        18.1020          84.63          78.34           8.52
      8052        18.1040          86.99          79.11           8.69
      8053        18.1060          79.07          80.06           8.24
      8054        18.1080          91.37          81.24           8.78
      8055        18.1100          79.98          82.72           8.37
      8056        18.1120          92.16          84.57           8.88
      8057        18.1140          88.31          86.92           8.78
      8058        18.1160          95.99          89.87           9.17
      8059        18.1180         101.92          93.58           9.51
      8060        18.1200         102.61          98.14           9.48
      8061        18.1220         115.52         103.58          10.08
      8062        18.1240         120.12         109.65          10.31
      8063        18.1260         126.41         115.68          10.55
      8064        18.1280         119.42         120.45          10.24
      8065        18.1300         127.73         122.60          10.52
      8066        18.1320         115.62         121.50           9.98
      8067        18.1340         120.07         117.72          10.19
      8068        18.1360         106.69         112.63           9.53
      8069        18.1380          95.19         107.44           9.02
      8070        18.1400         103.23         102.85           9.34
      8071        18.1420          88.50          99.06           8.70
      8072        18.1440          85.79          95.96           8.56
      8073        18.1460          85.87          93.32           8.63
      8074        18.1480          90.96          90.96           8.88
      8075        18.1500         107.21          88.84           9.61
      8076        18.1520          75.02          87.03           8.02
      8077        18.1540          82.86          85.59           8.40
      8078        18.1560          82.79          84.52           8.48
      8079        18.1580          92.76          83.84           8.97
      8080        18.1600          81.78          83.47           8.37
      8081        18.1620          81.50          83.39           8.42
      8082        18.1640          82.55          83.59           8.47
      8083        18.1660          71.47          84.07           7.84
      8084        18.1680          89.18          84.88           8.75
      8085        18.1700          81.44          86.00           8.41
      8086        18.1720          71.96          87.62           7.99
      8087        18.1740          86.12          89.62           8.67
      8088        18.1760          82.70          91.79           8.46
      8089        18.1780          99.52          93.70           9.31
      8090        18.1800          85.52          94.77           8.52
      8091        18.1820          92.56          94.58           8.95
      8092        18.1840          97.50          93.19           9.14
      8093        18.1860          79.53          91.08           8.15
      8094        18.1880          81.68          88.81           8.53
      8095        18.1900          80.07          86.78           8.41
      8096        18.1920          85.63          85.15           8.59
      8097        18.1940          88.63          83.98           8.64
      8098        18.1960          85.85          83.26           8.57
      8099        18.1980          83.75          82.97           8.51
      8100        18.2000          68.63          83.11           7.67
      8101        18.2020          73.17          83.67           7.94
      8102        18.2040          89.44          84.64           8.81
      8103        18.2060          82.35          85.98           8.46
      8104        18.2080          88.35          87.58           8.89
      8105        18.2100          84.61          89.17           8.61
      8106        18.2120          77.36          90.31           8.18
      8107        18.2140          90.91          90.61           8.93
      8108        18.2160          88.60          89.92           8.75
      8109        18.2180          87.68          88.52           8.69
      8110        18.2200         111.14          86.86           9.91
      8111        18.2220          87.88          85.32           8.69
      8112        18.2240          77.21          84.11           8.26
      8113        18.2260          86.34          83.30           8.57
      8114        18.2280          86.06          82.90           8.62
      8115        18.2300          89.33          82.98           8.81
      8116        18.2320          92.49          83.52           9.00
      8117        18.2340          94.28          84.53           9.08
      8118        18.2360          92.21          86.02           8.90
      8119        18.2380          83.83          87.92           8.60
      8120        18.2400          90.97          90.05           8.83
      8121        18.2420          86.32          92.02           8.64
      8122        18.2440          91.36          93.26           8.92
      8123        18.2460          91.44          93.26           8.88
      8124        18.2480          85.20          91.95           8.57
      8125        18.2500         109.56          89.70           9.67
      8126        18.2520          98.59          87.11           9.22
      8127        18.2540          65.72          84.60           7.53
      8128        18.2560          83.54          82.41           8.53
      8129        18.2580          87.10          80.58           8.71
      8130        18.2600          74.56          79.09           7.99
      8131        18.2620          87.91          77.89           8.64
      8132        18.2640          60.95          76.93           7.31
      8133        18.2660          78.73          76.17           8.25
      8134        18.2680          84.13          75.55           8.52
      8135        18.2700          80.15          75.06           8.30
      8136        18.2720          70.27          74.67           7.71
      8137        18.2740          63.31          74.34           7.46
      8138        18.2760          73.41          74.08           7.95
      8139        18.2780          77.24          73.85           8.14
      8140        18.2800          72.97          73.66           8.01
      8141        18.2820          79.05          73.51           8.39
      8142        18.2840          65.19          73.39           7.45
      8143        18.2860          75.63          73.29           8.12
      8144        18.2880          75.60          73.21           8.12
      8145        18.2900          71.52          73.16           7.87
      8146        18.2920          68.28          73.13           7.72
      8147        18.2940          72.23          73.13           7.91
      8148        18.2960          67.14          73.13           7.64
      8149        18.2980          68.35          73.03           7.67
      8150        18.3000          68.18          73.12           7.81
      8151        18.3020          66.33          73.25           7.63
      8152        18.3040          66.25          73.44           7.51
      8153        18.3060          67.97          73.69           7.69
      8154        18.3080          67.13          74.03           7.57
      8155        18.3100          76.65          74.46           8.10
      8156        18.3120          77.46          75.01           8.21
      8157        18.3140          67.21          75.71           7.66
      8158        18.3160          63.66          76.58           7.40
      8159        18.3180          78.41          77.58           8.25
      8160        18.3200          69.07          78.63           7.67
      8161        18.3220          87.97          79.56           8.72
      8162        18.3240          91.36          80.11           8.88
      8163        18.3260          79.38          80.11           8.27
      8164        18.3280          89.36          79.58           8.86
      8165        18.3300          87.48          78.72           8.73
      8166        18.3320          83.45          77.79           8.51
      8167        18.3340          88.78          76.95           8.76
      8168        18.3360          72.12          76.28           7.84
      8169        18.3380          81.87          75.76           8.36
      8170        18.3400          74.40          75.36           8.06
      8171        18.3420          79.57          75.00           8.35
      8172        18.3440          78.42          74.62           8.23
      8173        18.3460          75.81          74.20           8.06
      8174        18.3480          70.02          73.69           7.69
      8175        18.3500          83.79          73.28           8.47
      8176        18.3520          58.39          72.91           7.11
      8177        18.3540          62.58          72.60           7.34
      8178        18.3560          63.83          72.34           7.57
      8179        18.3580          70.97          72.13           7.86
      8180        18.3600          72.12          71.95           7.77
      8181        18.3620          79.41          71.81           8.31
      8182        18.3640          65.95          71.69           7.50
      8183        18.3660          59.28          71.59           7.17
      8184        18.3680          64.99          71.51           7.50
      8185        18.3700          90.47          71.44           8.82
      8186        18.3720          71.34          71.39           7.89
      8187        18.3740          71.48          71.34           7.92
      8188        18.3760          80.01          71.33           8.40
      8189        18.3780          76.67          71.30           8.16
      8190        18.3800          84.70          71.28           8.61
      8191        18.3820          70.42          71.21           7.81
      8192        18.3840          76.81          71.21           8.20
      8193        18.3860          59.67          71.22           7.19
      8194        18.3880          68.95          71.23           7.72
      8195        18.3900          70.57          71.25           7.85
      8196        18.3920          70.11          71.29           7.83
      8197        18.3940          73.84          71.33           8.02
      8198        18.3960          66.30          71.39           7.49
      8199        18.3980          73.27          71.47           7.95
      8200        18.4000          63.26          71.57           7.45
      8201        18.4020          64.47          71.69           7.48
      8202        18.4040          66.28          71.84           7.55
      8203        18.4060          69.83          72.04           7.79
      8204        18.4080          70.86          72.28           7.76
      8205        18.4100          69.03          72.58           7.74
      8206        18.4120          76.45          72.89           8.11
      8207        18.4140          76.68          73.32           8.13
      8208        18.4160          66.31          73.85           7.55
      8209        18.4180          84.62          74.42           8.61
      8210        18.4200          93.17          74.98           9.00
      8211        18.4220          76.70          75.47           8.25
      8212        18.4240          93.86          75.86           9.06
      8213        18.4260          76.77          76.20           8.18
      8214        18.4280          76.91          76.58           8.14
      8215        18.4300          72.36          77.12           7.96
      8216        18.4320          79.67          77.87           8.25
      8217        18.4340         100.53          78.83           9.34
      8218        18.4360          67.92          79.91           7.56
      8219        18.4380          70.18          80.93           7.81
      8220        18.4400          80.84          81.67           8.33
      8221        18.4420          84.27          81.93           8.48
      8222        18.4440          69.14          81.65           7.66
      8223        18.4460          78.59          80.89           8.22
      8224        18.4480          75.44          79.83           8.03
      8225        18.4500          79.14          78.66           8.20
      8226        18.4520          76.55          77.49           8.20
      8227        18.4540          78.66          76.40           8.25
      8228        18.4560          82.62          75.39           8.46
      8229        18.4580          87.00          74.49           8.63
      8230        18.4600          76.45          73.73           8.15
      8231        18.4620          81.25          73.11           8.43
      8232        18.4640          68.08          72.59           7.70
      8233        18.4660          66.88          72.18           7.53
      8234        18.4680          70.18          71.84           7.78
      8235        18.4700          85.85          71.56           8.59
      8236        18.4720          63.90          71.33           7.43
      8237        18.4740          74.88          71.14           8.00
      8238        18.4760          76.03          70.98           8.18
      8239        18.4780          68.41          70.84           7.72
      8240        18.4800          61.34          70.72           7.23
      8241        18.4820          74.28          70.62           7.98
      8242        18.4840          74.97          70.54           8.08
      8243        18.4860          64.87          70.46           7.53
      8244        18.4880          66.01          70.40           7.56
      8245        18.4900          59.06          70.34           7.23
      8246        18.4920          63.17          70.42           7.40
      8247        18.4940          72.29          70.35           7.86
      8248        18.4960          81.39          70.32           8.38
      8249        18.4980          75.16          70.29           8.05
      8250        18.5000          70.42          70.28           7.86
      8251        18.5020          71.86          70.27           7.91
      8252        18.5040          68.04          70.26           7.72
      8253        18.5060          73.47          70.26           7.95
      8254        18.5080          68.51          70.27           7.71
      8255        18.5100          79.82          70.29           8.31
      8256        18.5120          71.21          70.31           7.83
      8257        18.5140          60.15          70.35           7.28
      8258        18.5160          85.40          70.41           8.66
      8259        18.5180          74.69          70.48           8.03
      8260        18.5200          57.10          70.57           7.02
      8261        18.5220          71.56          70.78           7.86
      8262        18.5240          86.95          70.93           8.73
      8263        18.5260          73.77          71.13           7.96
      8264        18.5280          76.40          71.38           8.13
      8265        18.5300          69.84          71.70           7.78
      8266        18.5320          67.81          72.10           7.71
      8267        18.5340          73.82          72.60           8.02
      8268        18.5360          81.49          73.20           8.36
      8269        18.5380          69.42          73.89           7.66
      8270        18.5400          85.11          74.60           8.57
      8271        18.5420          70.81          75.22           7.84
      8272        18.5440          79.83          75.60           8.34
      8273        18.5460          89.05          75.59           8.82
      8274        18.5480          63.08          75.20           7.42
      8275        18.5500          67.50          74.56           7.69
      8276        18.5520          69.93          73.84           7.85
      8277        18.5540          69.98          73.16           7.73
      8278        18.5560          68.99          72.57           7.68
      8279        18.5580          70.13          72.08           7.82
      8280        18.5600          86.04          71.69           8.62
      8281        18.5620          86.14          71.38           8.68
      8282        18.5640          80.01          71.14           8.27
      8283        18.5660          66.18          70.95           7.57
      8284        18.5680          70.30          70.81           7.77
      8285        18.5700          72.87          70.71           8.03
      8286        18.5720          73.67          70.63           7.97
      8287        18.5740          66.87          70.58           7.61
      8288        18.5760          59.65          70.54           7.16
      8289        18.5780          88.15          70.53           8.75
      8290        18.5800          72.65          70.53           7.95
      8291        18.5820          82.33          70.55           8.48
      8292        18.5840          76.66          70.57           8.14
      8293        18.5860          75.87          70.62           8.13
      8294        18.5880          93.36          70.67           9.05
      8295        18.5900          71.69          70.75           7.84
      8296        18.5920          68.70          70.83           7.72
      8297        18.5940          70.91          70.95           7.80
      8298        18.5960          80.62          71.09           8.33
      8299        18.5980          67.17          71.25           7.66
      8300        18.6000          65.69          71.46           7.51
      8301        18.6020          71.22          71.71           7.82
      8302        18.6040          61.28          72.02           7.28
      8303        18.6060          71.07          72.41           7.87
      8304        18.6080          69.93          72.88           7.83
      8305        18.6100          77.89          73.44           8.20
      8306        18.6120          77.56          74.15           8.07
      8307        18.6140          86.23          75.00           8.64
      8308        18.6160          70.42          76.00           7.76
      8309        18.6180          78.66          77.11           8.27
      8310        18.6200          85.43          78.21           8.58
      8311        18.6220          81.87          79.09           8.47
      8312        18.6240          85.13          79.56           8.54
      8313        18.6260          86.35          79.54           8.74
      8314        18.6280          82.22          79.15           8.47
      8315        18.6300          85.09          78.61           8.56
      8316        18.6320          62.87          78.13           7.44
      8317        18.6340          77.96          77.86           8.22
      8318        18.6360          92.46          77.80           8.99
      8319        18.6380          73.77          78.02           7.89
      8320        18.6400          83.51          78.54           8.56
      8321        18.6420          76.77          79.40           8.16
      8322        18.6440          96.89          80.63           9.17
      8323        18.6460          71.60          82.31           7.85
      8324        18.6480          75.17          84.50           8.06
      8325        18.6500          77.85          87.27           8.16
      8326        18.6520          91.31          90.65           8.83
      8327        18.6540          97.68          94.55           9.15
      8328        18.6560         118.31          98.66          10.22
      8329        18.6580          99.38         102.33           9.31
      8330        18.6600         105.89         104.71           9.65
      8331        18.6620         105.09         104.96           9.61
      8332        18.6640         104.22         103.16           9.47
      8333        18.6660         100.45         100.06           9.33
      8334        18.6680          88.90          96.59           8.70
      8335        18.6700          90.87          93.45           8.90
      8336        18.6720          99.95          90.96           9.39
      8337        18.6740          94.69          89.27           9.08
      8338        18.6760          70.71          88.40           7.88
      8339        18.6780          74.33          88.33           7.98
      8340        18.6800          75.54          89.03           8.12
      8341        18.6820          81.31          90.45           8.38
      8342        18.6840          89.07          92.47           8.82
      8343        18.6860         103.69          94.77           9.47
      8344        18.6880         108.30          96.79           9.67
      8345        18.6900          86.02          97.82           8.78
      8346        18.6920          86.00          97.30           8.69
      8347        18.6940         104.14          95.25           9.62
      8348        18.6960          96.11          92.23           9.18
      8349        18.6980          83.69          88.92           8.56
      8350        18.7000          82.87          85.79           8.51
      8351        18.7020          82.25          83.07           8.42
      8352        18.7040          92.45          80.80           9.04
      8353        18.7060          73.31          78.96           7.97
      8354        18.7080          83.85          77.48           8.57
      8355        18.7100          73.29          76.31           7.99
      8356        18.7120          84.64          75.37           8.53
      8357        18.7140          84.68          74.63           8.58
      8358        18.7160          78.01          74.02           8.15
      8359        18.7180          75.67          73.56           8.05
      8360        18.7200          70.96          73.18           7.81
      8361        18.7220          67.34          72.88           7.63
      8362        18.7240          64.21          72.63           7.37
      8363        18.7260          75.03          72.41           8.05
      8364        18.7280          65.33          72.23           7.53
      8365        18.7300          89.24          72.07           8.77
      8366        18.7320          67.07          71.97           7.49
      8367        18.7340          61.25          71.91           7.32
      8368        18.7360          69.34          71.92           7.71
      8369        18.7380          82.61          71.98           8.52
      8370        18.7400          71.02          72.10           7.81
      8371        18.7420          78.40          72.27           8.16
      8372        18.7440          75.30          72.45           8.07
      8373        18.7460          68.91          72.59           7.75
      8374        18.7480          82.23          72.63           8.48
      8375        18.7500          83.53          72.53           8.50
      8376        18.7520          81.32          72.32           8.41
      8377        18.7540          76.68          72.05           8.12
      8378        18.7560          80.84          71.77           8.35
      8379        18.7580          68.08          71.52           7.65
      8380        18.7600          69.64          71.32           7.73
      8381        18.7620          63.35          71.17           7.40
      8382        18.7640          77.35          71.06           8.16
      8383        18.7660          76.65          70.99           8.10
      8384        18.7680          73.14          70.96           7.97
      8385        18.7700          66.83          70.96           7.65
      8386        18.7720          60.07          70.99           7.25
      8387        18.7740          78.14          71.05           8.31
      8388        18.7760          60.85          71.14           7.31
      8389        18.7780          74.39          71.27           8.05
      8390        18.7800          80.05          71.43           8.33
      8391        18.7820          72.64          71.64           7.86
      8392        18.7840          69.41          71.90           7.75
      8393        18.7860          73.83          72.23           8.00
      8394        18.7880          78.30          72.65           8.27
      8395        18.7900          77.57          73.16           8.21
      8396        18.7920          81.61          73.80           8.38
      8397        18.7940          71.33          74.55           7.88
      8398        18.7960          69.65          75.49           7.74
      8399        18.7980          74.24          76.59           8.12
      8400        18.8000          79.21          77.80           8.30
      8401        18.8020          83.13          78.99           8.51
      8402        18.8040          78.56          79.97           8.27
      8403        18.8060          71.00          80.55           7.87
      8404        18.8080          77.57          80.72           8.29
      8405        18.8100          72.04          80.62           7.90
      8406        18.8120          74.09          80.52           7.97
      8407        18.8140          72.34          80.62           7.99
      8408        18.8160          75.71          81.09           8.21
      8409        18.8180          88.86          82.01           8.84
      8410        18.8200          94.09          83.44           9.08
      8411        18.8220          87.62          85.39           8.67
      8412        18.8240          83.86          87.79           8.50
      8413        18.8260          89.02          90.42           8.73
      8414        18.8280          83.01          92.79           8.51
      8415        18.8300          88.73          94.27           8.81
      8416        18.8320          98.15          94.19           9.23
      8417        18.8340         104.08          92.72           9.51
      8418        18.8360          95.13          90.17           9.08
      8419        18.8380          72.31          87.21           7.92
      8420        18.8400          79.70          84.31           8.35
      8421        18.8420          90.46          81.75           8.79
      8422        18.8440          86.07          79.60           8.66
      8423        18.8460          98.68          77.84           9.30
      8424        18.8480          94.63          76.44           9.02
      8425        18.8500          78.00          75.31           8.26
      8426        18.8520          80.97          74.42           8.36
      8427        18.8540          81.62          73.71           8.41
      8428        18.8560          63.79          73.19           7.48
      8429        18.8580          71.35          72.74           7.90
      8430        18.8600          68.25          72.38           7.82
      8431        18.8620          77.12          71.99           8.20
      8432        18.8640          63.66          71.74           7.47
      8433        18.8660          80.44          71.53           8.33
      8434        18.8680          85.93          71.32           8.70
      8435        18.8700          71.01          71.26           7.87
      8436        18.8720          63.41          71.09           7.38
      8437        18.8740          82.53          70.94           8.47
      8438        18.8760          71.42          70.81           7.85
      8439        18.8780          67.55          70.73           7.59
      8440        18.8800          71.50          70.64           7.81
      8441        18.8820          70.36          70.56           7.79
      8442        18.8840          79.47          70.49           8.33
      8443        18.8860          82.54          70.43           8.51
      8444        18.8880          74.29          70.39           8.06
      8445        18.8900          62.68          70.35           7.37
      8446        18.8920          76.00          70.31           8.05
      8447        18.8940          77.56          70.29           8.12
      8448        18.8960          69.68          70.26           7.64
      8449        18.8980          82.93          70.25           8.48
      8450        18.9000          70.34          70.23           7.85
      8451        18.9020          71.99          70.22           7.94
      8452        18.9040          64.20          70.22           7.44
      8453        18.9060          80.10          70.22           8.38
      8454        18.9080          74.27          70.22           8.00
      8455        18.9100          76.61          70.22           8.12
      8456        18.9120          55.40          70.23           6.97
      8457        18.9140          57.26          70.24           7.14
      8458        18.9160          66.56          70.25           7.60
      8459        18.9180          63.67          70.26           7.44
      8460        18.9200          77.03          70.27           8.23
      8461        18.9220          72.92          70.29           7.96
      8462        18.9240          83.60          70.31           8.55
      8463        18.9260          68.46          70.33           7.70
      8464        18.9280          71.13          70.35           7.88
      8465        18.9300          93.22          70.38           8.93
      8466        18.9320          76.47          70.41           8.16
      8467        18.9340          75.43          70.44           8.10
      8468        18.9360          62.00          70.47           7.35
      8469        18.9380          65.49          70.50           7.62
      8470        18.9400          83.27          70.54           8.55
      8471        18.9420          58.76          70.58           7.17
      8472        18.9440          70.19          70.63           7.79
      8473        18.9460          74.16          70.67           8.09
      8474        18.9480          83.42          70.72           8.46
      8475        18.9500          75.90          70.76           8.03
      8476        18.9520          79.08          70.82           8.19
      8477        18.9540          74.62          70.87           8.06
      8478        18.9560          72.34          70.93           7.93
      8479        18.9580          64.67          70.99           7.45
      8480        18.9600          78.11          71.05           8.32
      8481        18.9620          67.05          71.12           7.68
      8482        18.9640          68.09          71.20           7.68
      8483        18.9660          62.09          71.28           7.28
      8484        18.9680          70.28          71.36           7.83
      8485        18.9700          67.29          71.54           7.69
      8486        18.9720          72.51          71.64           7.96
      8487        18.9740          62.49          71.75           7.36
      8488        18.9760          83.59          71.86           8.53
      8489        18.9780          85.85          71.97           8.67
      8490        18.9800          78.70          72.11           8.28
      8491        18.9820          93.73          72.26           9.07
      8492        18.9840          70.25          72.43           7.79
      8493        18.9860          60.83          72.63           7.13
      8494        18.9880          78.98          72.84           8.31
      8495        18.9900          82.48          73.06           8.47
      8496        18.9920          80.03          73.32           8.30
      8497        18.9940          72.80          73.60           7.91
      8498        18.9960          82.54          73.93           8.54
      8499        18.9980          73.27          74.29           7.91
      8500        19.0000          72.19          74.72           7.91
      8501        19.0020          75.82          75.21           8.12
      8502        19.0040          76.35          75.70           8.07
      8503        19.0060          62.63          76.37           7.39
      8504        19.0080          80.63          77.18           8.34
      8505        19.0100          88.27          78.14           8.74
      8506        19.0120          89.34          79.32           8.75
      8507        19.0140          84.77          80.74           8.57
      8508        19.0160          86.47          82.48           8.63
      8509        19.0180          92.57          84.60           8.93
      8510        19.0200          79.33          87.15           8.23
      8511        19.0220          90.59          90.15           8.87
      8512        19.0240          75.49          93.53           8.07
      8513        19.0260          82.72          97.09           8.44
      8514        19.0280         105.23         100.52           9.52
      8515        19.0300         104.75         103.55           9.57
      8516        19.0320         108.35         106.18           9.76
      8517        19.0340         113.51         108.75           9.90
      8518        19.0360         104.94         111.33           9.45
      8519        19.0380         122.85         113.96          10.20
      8520        19.0400         121.60         116.13          10.14
      8521        19.0420         106.81         117.07           9.57
      8522        19.0440         117.97         116.25          10.07
      8523        19.0460         107.19         113.83           9.64
      8524        19.0480         109.32         110.39           9.79
      8525        19.0500         101.25         106.53           9.42
      8526        19.0520          90.77         102.54           8.86
      8527        19.0540         104.08          98.59           9.53
      8528        19.0560          90.07          94.85           8.86
      8529        19.0580          81.25          91.46           8.27
      8530        19.0600          87.74          88.49           8.69
      8531        19.0620          80.45          85.98           8.31
      8532        19.0640          80.82          83.89           8.35
      8533        19.0660          90.51          82.17           8.81
      8534        19.0680          91.25          80.81           8.91
      8535        19.0700          81.27          79.68           8.36
      8536        19.0720          79.84          78.77           8.30
      8537        19.0740          88.44          78.03           8.67
      8538        19.0760         100.51          77.43           9.25
      8539        19.0780          82.89          76.94           8.36
      8540        19.0800          77.43          76.54           8.15
      8541        19.0820          58.87          76.22           6.99
      8542        19.0840          92.54          75.97           8.97
      8543        19.0860          77.03          75.77           8.09
      8544        19.0880          83.04          75.63           8.40
      8545        19.0900          60.08          75.53           7.15
      8546        19.0920          64.92          75.48           7.43
      8547        19.0940          68.47          75.48           7.70
      8548        19.0960          76.74          75.52           8.06
      8549        19.0980          64.78          75.61           7.48
      8550        19.1000          65.37          75.76           7.59
      8551        19.1020          68.60          75.95           7.72
      8552        19.1040          86.26          76.20           8.68
      8553        19.1060          64.66          76.50           7.49
      8554        19.1080          80.11          76.85           8.37
      8555        19.1100          65.88          77.25           7.59
      8556        19.1120          69.84          77.69           7.83
      8557        19.1140          84.98          78.15           8.63
      8558        19.1160          74.93          78.58           8.07
      8559        19.1180          77.87          78.98           8.22
      8560        19.1200          74.86          79.40           8.05
      8561        19.1220          59.62          79.91           7.17
      8562        19.1240          79.67          80.60           8.31
      8563        19.1260          81.78          81.54           8.42
      8564        19.1280          84.57          82.80           8.47
      8565        19.1300          73.86          84.44           8.07
      8566        19.1320          82.92          86.50           8.48
      8567        19.1340          90.47          88.99           8.75
      8568        19.1360          94.31          91.81           9.02
      8569        19.1380         101.94          94.72           9.36
      8570        19.1400          93.93          97.24           9.03
      8571        19.1420         116.13          98.81           9.95
      8572        19.1440         105.33          99.05           9.48
      8573        19.1460          93.76          98.04           8.94
      8574        19.1480          99.17          96.25           9.27
      8575        19.1500          98.73          94.18           9.25
      8576        19.1520          90.58          92.15           8.82
      8577        19.1540          88.61          90.32           8.73
      8578        19.1560          92.04          88.68           8.89
      8579        19.1580          74.99          87.19           7.89
      8580        19.1600          95.76          85.75           9.12
      8581        19.1620          78.84          84.33           8.24
      8582        19.1640          67.39          82.96           7.67
      8583        19.1660          81.11          81.73           8.40
      8584        19.1680          96.19          80.68           9.16
      8585        19.1700          81.19          79.82           8.36
      8586        19.1720          74.77          79.16           7.95
      8587        19.1740          79.03          78.67           8.29
      8588        19.1760          72.06          78.33           7.91
      8589        19.1780         100.69          78.14           9.36
      8590        19.1800          79.80          78.07           8.34
      8591        19.1820          67.93          78.13           7.72
      8592        19.1840          80.72          78.33           8.34
      8593        19.1860          69.12          78.67           7.76
      8594        19.1880          82.71          79.18           8.43
      8595        19.1900          76.58          79.88           8.20
      8596        19.1920          69.14          80.82           7.74
      8597        19.1940          67.36          82.04           7.67
      8598        19.1960          78.61          83.59           8.19
      8599        19.1980          91.13          85.50           8.93
      8600        19.2000          84.43          87.76           8.53
      8601        19.2020          96.19          90.26           9.22
      8602        19.2040          96.20          92.67           9.14
      8603        19.2060          97.97          94.57           9.30
      8604        19.2080          97.47          95.39           9.14
      8605        19.2100          90.76          94.85           8.88
      8606        19.2120         107.64          93.16           9.60
      8607        19.2140         100.82          90.83           9.29
      8608        19.2160          89.44          88.27           8.64
      8609        19.2180          84.08          86.05           8.56
      8610        19.2200          90.65          84.21           8.89
      8611        19.2220          82.94          82.76           8.55
      8612        19.2240          74.64          81.74           8.07
      8613        19.2260          80.22          81.01           8.30
      8614        19.2280          77.07          80.63           8.21
      8615        19.2300          79.82          80.55           8.33
      8616        19.2320          79.74          80.75           8.24
      8617        19.2340          86.59          81.19           8.69
      8618        19.2360          71.36          81.82           7.86
      8619        19.2380          77.14          82.49           8.17
      8620        19.2400          82.14          83.01           8.48
      8621        19.2420         100.68          83.13           9.33
      8622        19.2440          88.18          82.73           8.76
      8623        19.2460          72.78          81.88           7.89
      8624        19.2480          91.83          80.83           8.85
      8625        19.2500          82.66          79.66           8.42
      8626        19.2520          78.31          78.59           8.25
      8627        19.2540          81.17          77.66           8.42
      8628        19.2560          71.50          76.88           7.86
      8629        19.2580          70.85          76.24           7.81
      8630        19.2600          75.16          75.73           8.05
      8631        19.2620          78.03          75.31           8.26
      8632        19.2640          80.39          74.97           8.30
      8633        19.2660          80.00          74.70           8.31
      8634        19.2680          69.67          74.48           7.77
      8635        19.2700          82.50          74.30           8.43
      8636        19.2720          73.66          74.21           7.97
      8637        19.2740          77.85          74.10           8.23
      8638        19.2760          62.76          74.02           7.32
      8639        19.2780          76.32          73.96           8.09
      8640        19.2800          78.30          73.92           8.23
      8641        19.2820          82.80          73.91           8.41
      8642        19.2840          75.26          73.92           8.10
      8643        19.2860          80.02          73.95           8.31
      8644        19.2880          78.65          74.01           8.25
      8645        19.2900          78.56          74.10           8.29
      8646        19.2920          66.90          74.22           7.57
      8647        19.2940          76.50          74.55           8.08
      8648        19.2960          64.19          74.78           7.45
      8649        19.2980          67.32          75.07           7.57
      8650        19.3000          85.71          75.45           8.61
      8651        19.3020          78.94          75.93           8.30
      8652        19.3040          75.92          76.53           8.08
      8653        19.3060          81.07          77.25           8.40
      8654        19.3080          83.52          78.07           8.48
      8655        19.3100          75.64          78.93           8.07
      8656        19.3120          75.08          79.72           8.10
      8657        19.3140          83.22          80.28           8.45
      8658        19.3160          65.71          80.49           7.49
      8659        19.3180          84.08          80.19           8.52
      8660        19.3200          88.97          79.60           8.78
      8661        19.3220          76.68          78.78           8.15
      8662        19.3240          73.54          77.88           7.91
      8663        19.3260          78.36          77.02           8.21
      8664        19.3280          90.10          76.28           8.87
      8665        19.3300          92.36          75.66           8.97
      8666        19.3320          75.08          75.15           8.02
      8667        19.3340          73.51          74.73           7.88
      8668        19.3360          81.64          74.42           8.41
      8669        19.3380          65.64          74.27           7.49
      8670        19.3400          74.08          74.08           8.02
      8671        19.3420          85.22          73.93           8.66
      8672        19.3440          74.24          73.82           8.04
      8673        19.3460          77.15          73.74           8.14
      8674        19.3480          67.23          73.69           7.58
      8675        19.3500          72.82          73.65           7.93
      8676        19.3520          66.78          73.64           7.52
      8677        19.3540          75.44          73.65           8.07
      8678        19.3560          87.22          73.68           8.61
      8679        19.3580          74.78          73.72           7.99
      8680        19.3600          63.42          73.79           7.41
      8681        19.3620          90.28          73.89           8.96
      8682        19.3640          86.78          74.00           8.65
      8683        19.3660          83.23          74.14           8.43
      8684        19.3680          69.81          74.31           7.70
      8685        19.3700          71.53          74.52           7.89
      8686        19.3720          74.23          74.78           7.97
      8687        19.3740          81.81          75.08           8.40
      8688        19.3760          81.57          75.51           8.36
      8689        19.3780          74.68          75.97           8.03
      8690        19.3800          69.36          76.53           7.67
      8691        19.3820          77.20          77.19           8.11
      8692        19.3840          83.24          77.91           8.49
      8693        19.3860          77.89          78.83           8.25
      8694        19.3880          79.23          79.91           8.36
      8695        19.3900          66.86          81.14           7.61
      8696        19.3920          79.61          82.53           8.36
      8697        19.3940         103.14          84.01           9.45
      8698        19.3960          79.47          85.40           8.30
      8699        19.3980         104.08          86.46           9.47
      8700        19.4000          97.21          86.99           9.12
      8701        19.4020          97.49          86.94           9.12
      8702        19.4040          83.25          86.53           8.48
      8703        19.4060          79.22          86.08           8.30
      8704        19.4080          75.13          85.84           8.04
      8705        19.4100         102.74          85.97           9.47
      8706        19.4120          85.33          86.54           8.57
      8707        19.4140          96.08          87.59           9.15
      8708        19.4160          81.96          89.17           8.37
      8709        19.4180          84.07          90.92           8.50
      8710        19.4200          86.37          92.72           8.60
      8711        19.4220          95.84          94.11           9.10
      8712        19.4240          88.26          94.70           8.68
      8713        19.4260          77.27          94.35           8.17
      8714        19.4280          91.93          93.31           8.96
      8715        19.4300          87.80          92.00           8.81
      8716        19.4320          91.49          90.85           8.97
      8717        19.4340          83.82          90.10           8.49
      8718        19.4360          82.61          89.89           8.39
      8719        19.4380          93.60          90.24           8.97
      8720        19.4400          86.46          91.14           8.69
      8721        19.4420          88.99          92.50           8.77
      8722        19.4440          91.56          94.13           8.87
      8723        19.4460         100.23          95.73           9.34
      8724        19.4480         116.11          96.99          10.06
      8725        19.4500         114.48          97.75           9.94
      8726        19.4520          98.98          98.18           9.23
      8727        19.4540         102.98          98.66           9.36
      8728        19.4560          95.95          99.61           9.19
      8729        19.4580          91.56         101.34           8.92
      8730        19.4600         106.67         103.98           9.59
      8731        19.4620         100.36         107.50           9.37
      8732        19.4640         103.98         111.62           9.52
      8733        19.4660         121.15         115.65          10.25
      8734        19.4680         128.59         118.57          10.53
      8735        19.4700         145.14         119.32          11.23
      8736        19.4720         136.79         117.49          10.91
      8737        19.4740         145.30         113.56          11.25
      8738        19.4760         110.37         108.57           9.72
      8739        19.4780         104.34         103.48           9.50
      8740        19.4800          87.85          98.88           8.73
      8741        19.4820         103.68          95.00           9.45
      8742        19.4840         109.66          91.89           9.79
      8743        19.4860          97.86          89.48           9.19
      8744        19.4880          86.48          87.70           8.57
      8745        19.4900         102.32          86.47           9.38
      8746        19.4920          74.92          85.74           7.98
      8747        19.4940          77.26          85.44           8.14
      8748        19.4960          79.99          85.61           8.23
      8749        19.4980          85.64          86.39           8.59
      8750        19.5000          83.72          87.49           8.51
      8751        19.5020          82.83          89.11           8.50
      8752        19.5040          84.52          91.27           8.51
      8753        19.5060          92.57          93.91           8.89
      8754        19.5080          91.93          96.85           8.95
      8755        19.5100         122.75          99.70          10.30
      8756        19.5120          92.65         101.81           8.94
      8757        19.5140         114.53         102.54           9.99
      8758        19.5160         106.32         101.63           9.54
      8759        19.5180         108.23          99.40           9.74
      8760        19.5200          78.97          96.48           8.30
      8761        19.5220         102.11          93.53           9.39
      8762        19.5240          89.84          90.93           8.82
      8763        19.5260          82.53          88.86           8.45
      8764        19.5280          97.99          87.36           9.14
      8765        19.5300          98.61          86.40           9.27
      8766        19.5320          84.70          85.91           8.57
      8767        19.5340          75.56          85.81           8.03
      8768        19.5360          85.65          85.97           8.68
      8769        19.5380          72.92          86.26           7.93
      8770        19.5400          94.26          86.57           9.03
      8771        19.5420          78.07          86.94           8.14
      8772        19.5440          86.92          87.44           8.76
      8773        19.5460         100.43          88.16           9.37
      8774        19.5480          85.57          89.08           8.64
      8775        19.5500          97.85          90.04           9.24
      8776        19.5520          94.79          90.71           9.12
      8777        19.5540          97.39          90.78           9.19
      8778        19.5560          86.13          90.14           8.65
      8779        19.5580          89.46          88.99           8.81
      8780        19.5600          84.94          87.67           8.54
      8781        19.5620          83.95          86.48           8.59
      8782        19.5640          72.43          85.62           7.95
      8783        19.5660          89.61          85.17           8.81
      8784        19.5680          87.31          85.17           8.70
      8785        19.5700          93.75          85.56           9.05
      8786        19.5720          83.64          86.27           8.49
      8787        19.5740         101.39          87.17           9.40
      8788        19.5760          80.33          88.09           8.35
      8789        19.5780          97.01          89.07           9.14
      8790        19.5800         105.04          90.15           9.52
      8791        19.5820          87.96          91.51           8.70
      8792        19.5840          92.70          93.27           8.99
      8793        19.5860          88.80          95.40           8.81
      8794        19.5880          95.56          97.63           9.01
      8795        19.5900          92.89          99.41           8.95
      8796        19.5920          93.09         100.08           8.94
      8797        19.5940          90.93          99.24           8.90
      8798        19.5960          95.56          97.01           9.06
      8799        19.5980          92.38          93.93           8.85
      8800        19.6000          95.11          90.66           8.99
      8801        19.6020         102.85          87.50           9.40
      8802        19.6040          86.09          84.80           8.52
      8803        19.6060          87.26          82.55           8.61
      8804        19.6080          77.81          80.72           8.17
      8805        19.6100          83.86          79.25           8.44
      8806        19.6120          72.69          78.09           7.95
      8807        19.6140          79.09          77.18           8.27
      8808        19.6160          84.30          76.52           8.55
      8809        19.6180          88.16          75.98           8.65
      8810        19.6200          79.65          75.59           8.32
      8811        19.6220          83.00          75.32           8.61
      8812        19.6240          81.74          75.17           8.41
      8813        19.6260          78.28          75.07           8.18
      8814        19.6280          75.74          75.11           8.08
      8815        19.6300          75.96          75.24           7.99
      8816        19.6320          84.92          75.45           8.60
      8817        19.6340          74.13          75.73           8.01
      8818        19.6360          72.65          76.05           7.90
      8819        19.6380          78.36          76.38           8.13
      8820        19.6400          78.39          76.67           8.22
      8821        19.6420          79.86          76.91           8.32
      8822        19.6440          83.35          77.11           8.53
      8823        19.6460          88.23          77.33           8.80
      8824        19.6480          76.12          77.48           8.14
      8825        19.6500          72.47          77.94           7.95
      8826        19.6520          75.62          78.62           8.10
      8827        19.6540          85.64          79.56           8.63
      8828        19.6560          73.36          80.80           7.92
      8829        19.6580          70.93          82.42           7.92
      8830        19.6600          81.62          84.49           8.44
      8831        19.6620          80.07          87.08           8.32
      8832        19.6640          87.54          90.27           8.74
      8833        19.6660          92.18          94.08           8.94
      8834        19.6680          81.90          98.47           8.39
      8835        19.6700         100.95         103.26           9.39
      8836        19.6720          91.76         108.02           9.02
      8837        19.6740         106.84         111.99           9.77
      8838        19.6760         115.08         114.20          10.08
      8839        19.6780         106.60         113.96           9.64
      8840        19.6800         105.03         111.32           9.59
      8841        19.6820         108.26         107.12           9.68
      8842        19.6840         104.62         102.35           9.38
      8843        19.6860          94.40          97.79           8.91
      8844        19.6880          98.21          93.83           9.15
      8845        19.6900          94.95          90.57           8.97
      8846        19.6920          97.83          87.83           9.04
      8847        19.6940          83.51          85.63           8.42
      8848        19.6960          85.53          83.72           8.67
      8849        19.6980          89.14          81.98           8.82
      8850        19.7000          76.54          80.38           8.11
      8851        19.7020          83.19          78.94           8.57
      8852        19.7040          78.82          77.69           8.28
      8853        19.7060          91.34          76.63           8.82
      8854        19.7080          68.38          75.75           7.59
      8855        19.7100          76.86          75.02           8.14
      8856        19.7120          85.84          74.41           8.57
      8857        19.7140          64.38          73.91           7.46
      8858        19.7160          75.98          73.51           8.09
      8859        19.7180          69.99          73.16           7.79
      8860        19.7200          76.79          72.90           8.14
      8861        19.7220          77.15          72.69           8.12
      8862        19.7240          71.32          72.54           7.78
      8863        19.7260          64.61          72.44           7.46
      8864        19.7280          80.49          72.39           8.35
      8865        19.7300          72.69          72.39           7.95
      8866        19.7320          77.41          72.50           8.22
      8867        19.7340          74.78          72.61           8.08
      8868        19.7360          64.09          72.77           7.37
      8869        19.7380          73.44          72.98           7.97
      8870        19.7400          55.01          73.24           6.93
      8871        19.7420          70.94          73.50           7.79
      8872        19.7440          78.79          73.71           8.23
      8873        19.7460          77.53          73.83           8.13
      8874        19.7480          69.31          73.82           7.77
      8875        19.7500          75.12          73.72           8.07
      8876        19.7520          73.52          73.57           7.95
      8877        19.7540          70.41          73.44           7.80
      8878        19.7560          81.40          73.34           8.42
      8879        19.7580          68.52          73.35           7.77
      8880        19.7600          74.49          73.45           7.94
      8881        19.7620          72.55          73.66           7.95
      8882        19.7640          67.88          73.98           7.72
      8883        19.7660          80.48          74.44           8.31
      8884        19.7680          87.02          75.10           8.63
      8885        19.7700          67.47          75.86           7.64
      8886        19.7720          67.24          76.66           7.63
      8887        19.7740          64.84          77.65           7.50
      8888        19.7760          77.71          78.65           8.25
      8889        19.7780          74.98          79.52           8.09
      8890        19.7800          69.21          80.16           7.74
      8891        19.7820          90.57          80.59           8.86
      8892        19.7840          80.45          80.94           8.23
      8893        19.7860          80.78          81.34           8.42
      8894        19.7880          82.51          81.91           8.44
      8895        19.7900          81.29          82.56           8.41
      8896        19.7920          87.31          83.14           8.73
      8897        19.7940          95.19          83.40           9.10
      8898        19.7960          75.15          83.13           8.08
      8899        19.7980          89.11          82.33           8.81
      8900        19.8000          93.24          81.16           8.99
      8901        19.8020          83.00          79.86           8.42
      8902        19.8040          69.52          78.61           7.77
      8903        19.8060          86.83          77.49           8.67
      8904        19.8080          81.95          76.51           8.49
      8905        19.8100          85.64          75.67           8.63
      8906        19.8120          83.65          74.95           8.48
      8907        19.8140          79.06          74.33           8.27
      8908        19.8160          82.12          73.81           8.45
      8909        19.8180          69.15          73.37           7.75
      8910        19.8200          66.61          73.01           7.55
      8911        19.8220          64.80          72.73           7.51
      8912        19.8240          69.28          72.51           7.76
      8913        19.8260          74.84          72.36           8.06
      8914        19.8280          77.71          72.26           8.21
      8915        19.8300          76.13          72.21           8.08
      8916        19.8320          80.66          72.20           8.33
      8917        19.8340          63.30          72.23           7.36
      8918        19.8360          70.37          72.32           7.75
      8919        19.8380          65.77          72.45           7.57
      8920        19.8400          69.74          72.65           7.80
      8921        19.8420          66.92          72.90           7.70
      8922        19.8440          64.81          73.23           7.45
      8923        19.8460          81.86          73.63           8.48
      8924        19.8480          75.84          74.09           8.07
      8925        19.8500          72.57          74.61           7.91
      8926        19.8520          86.45          75.16           8.72
      8927        19.8540          73.37          75.74           8.00
      8928        19.8560          75.07          76.15           8.09
      8929        19.8580          78.33          76.66           8.23
      8930        19.8600          83.11          77.01           8.48
      8931        19.8620          70.87          77.15           7.82
      8932        19.8640          94.56          77.07           8.98
      8933        19.8660          69.98          76.84           7.68
      8934        19.8680          68.62          76.58           7.74
      8935        19.8700          88.57          76.33           8.73
      8936        19.8720          72.52          76.13           7.91
      8937        19.8740          75.33          75.98           8.07
      8938        19.8760          84.68          75.88           8.58
      8939        19.8780          81.96          75.89           8.36
      8940        19.8800          73.80          76.02           8.02
      8941        19.8820          72.50          76.28           7.91
      8942        19.8840          72.44          76.69           7.92
      8943        19.8860          69.54          77.24           7.63
      8944        19.8880          69.09          77.91           7.73
      8945        19.8900          90.86          78.70           8.88
      8946        19.8920          84.65          79.59           8.51
      8947        19.8940          98.16          80.65           9.32
      8948        19.8960          99.44          81.98           9.36
      8949        19.8980          83.34          83.67           8.57
      8950        19.9000          72.42          85.80           7.89
      8951        19.9020          73.41          88.39           8.03
      8952        19.9040          71.27          91.36           7.92
      8953        19.9060          79.99          94.44           8.39
      8954        19.9080          91.72          97.11           8.89
      8955        19.9100         105.24          98.71           9.57
      8956        19.9120         106.66          98.75           9.65
      8957        19.9140          94.87          97.23           9.12
      8958        19.9160          90.47          94.62           8.88
      8959        19.9180          91.76          91.61           8.89
      8960        19.9200          88.94          88.69           8.77
      8961        19.9220          84.07          86.16           8.50
      8962        19.9240         106.57          84.12           9.58
      8963        19.9260          99.61          82.58           9.19
      8964        19.9280          82.44          81.54           8.41
      8965        19.9300          92.92          80.94           8.95
      8966        19.9320         101.38          80.78           9.30
      8967        19.9340          95.56          81.02           8.97
      8968        19.9360          81.30          81.67           8.38
      8969        19.9380          77.42          82.72           8.12
      8970        19.9400          86.96          84.12           8.61
      8971        19.9420         102.69          85.73           9.38
      8972        19.9440          89.78          87.32           8.77
      8973        19.9460          90.59          88.50           8.80
      8974        19.9480          92.41          88.93           8.89
      8975        19.9500          84.83          88.44           8.63
      8976        19.9520          98.70          87.19           9.19
      8977        19.9540          80.29          85.55           8.29
      8978        19.9560          78.64          83.85           8.29
      8979        19.9580          88.03          82.31           8.75
      8980        19.9600          82.45          81.01           8.48
      8981        19.9620          71.60          80.00           7.88
      8982        19.9640          69.71          79.19           7.77
      8983        19.9660          80.85          78.51           8.41
      8984        19.9680          86.37          77.77           8.61
      8985        19.9700          81.74          76.97           8.43
      8986        19.9720          66.71          76.17           7.57
      8987        19.9740          70.86          75.38           7.85
      8988        19.9760          66.64          74.65           7.64
      8989        19.9780          76.40          74.10           8.12
      8990        19.9800          73.01          73.69           7.94
      8991        19.9820          70.95          73.40           7.74
      8992        19.9840          71.32          73.22           7.81
      8993        19.9860          73.95          73.08           8.00
      8994        19.9880          79.17          72.96           8.23
      8995        19.9900          75.13          72.80           8.03
      8996        19.9920          72.02          72.59           7.81
      8997        19.9940          65.30          72.37           7.46
      8998        19.9960          69.82          72.17           7.77
      8999        19.9980          73.62          72.03          11.89

# 12. STRUCTURE-FACTOR LIST

loop_
 _refln_index_h
 _refln_index_k
 _refln_index_l
 _refln_F_squared_calc
 _refln_F_squared_meas
 _refln_observed_status
 _refln_d_spacing
   1   0   1      233.35      135.58 <  7.096397
   0   0   2    72892.07    70280.05 o  6.250642
   1   1   0    67369.89    63940.95 o  6.175493
   1   1   1     1747.00     1874.41 o  5.536778
   0   2   0    96258.17    98661.37 o  4.425879
   1   1   2    70254.54    73705.42 o  4.393061
   2   0   0    87048.68    74612.06 o  4.309897
   0   2   1     5024.38     3245.42 o  4.172128
   1   2   0    30101.95    29574.43 o  3.937209
   2   1   0    34831.90    30577.70 o  3.874984
   1   2   1    11518.96    12363.88 o  3.755364
   1   0   3    50387.65    52213.01 o  3.751693
   2   1   1    24902.93    22218.97 o  3.701254
   0   2   2    72510.17    68964.14 o  3.612078
   2   0   2    57251.11    48672.60 o  3.548198
   1   1   3    13655.40    12387.49 o  3.454244
   1   2   2    35243.75    35342.51 o  3.331406
   2   1   2    36650.73    35677.09 o  3.293457
   0   0   4   718677.19   724820.94 o  3.125321
   2   2   0   485318.44   471776.06 o  3.087747
   0   2   3    37914.89    33573.77 o  3.033944
   2   2   1    12914.53    12822.65 o  2.997662
   1   2   3     6537.31     6824.61 o  2.861847
   2   1   3     8986.56     7874.36 o  2.837682
   3   0   1    12649.98    13304.43 o  2.800254
   1   3   0   161762.89   165354.70 o  2.791569
   1   1   4    61946.00    64057.34 o  2.788552
   2   2   2    59179.78    58839.67 o  2.768389
   3   1   0    70544.59    67006.74 o  2.732895
   1   3   1    17761.30    17685.92 o  2.724468
   3   1   1     6947.11     5837.04 o  2.669844
   0   2   4   127211.45   123510.16 o  2.552969
   1   3   2    82192.38    78932.39 o  2.548919
   2   0   4   110147.92   109738.16 o  2.530112
   3   1   2   145838.31   129977.54 o  2.504021
   2   2   3      189.24       85.56 <  2.480893
   1   2   4     8676.52    13190.15 o  2.447862
   2   3   0    14538.27    13219.42 o  2.434690
   2   1   4     9223.64     8528.89 o  2.432688
   3   2   0    13483.95    11671.70 o  2.409955
   1   0   5    23847.00    23846.14 o  2.401281
   2   3   1     2546.71     2096.81 <  2.389790
   3   2   1     4238.80     3144.55 o  2.366385
   3   0   3        0.00        0.00 o  2.365466
   1   3   3     7394.77     7070.69 o  2.319250
   1   1   5      449.82      432.11 o  2.317520
   3   1   3     6695.48     4851.92 o  2.285274
   2   3   2     3011.69     2946.00 <  2.268666
   3   2   2      999.55      665.75 <  2.248614
   0   4   0   212689.44   220113.77 o  2.212940
   2   2   4   293480.69   305870.84 o  2.196531
   0   4   1    24998.76    18639.30 o  2.179062
   0   2   5     1256.10     1010.60 o  2.176910
   4   0   0   136755.94   134636.86 o  2.154948
   1   4   0    65794.65    54613.52 o  2.143431
   1   4   1      888.99      817.87 o  2.112603
   1   2   5    41784.82    38585.74 o  2.110642
   2   3   3    21157.76    25209.24 o  2.102180
   2   1   5    26593.14    31439.83 o  2.100891
   4   1   0    60312.19    61227.98 o  2.093795
   3   2   3    19430.21    18849.88 o  2.086197
   0   4   2    37727.24    36765.51 o  2.086064
   0   0   6     1915.63     1885.47 o  2.083547
   1   3   4   111558.61   107027.74 o  2.081971
   4   1   1    12811.74    13050.65 o  2.065031
   3   3   0      807.70      780.97 o  2.058498
   3   1   4    47442.27    45812.02 o  2.057287
   4   0   2    35871.88    24898.42 o  2.037275
   3   3   1     2710.52     2772.62 o  2.031146
   1   4   2    38261.45    37379.61 o  2.027534
   4   1   2    31932.57    25596.02 o  1.985369
   1   1   6    39822.34    36949.36 o  1.974211
   2   4   0    54986.22    51254.09 o  1.968605
   3   3   2     6872.66     5499.63 o  1.955200
   0   4   3      822.52      659.96 o  1.954443
   2   4   1     3651.29     4162.60 o  1.944641
   2   2   5    21183.12    24234.65 o  1.943111
   4   2   0    47321.11    52567.02 o  1.937492
   2   3   4     5218.30     5210.96 o  1.920670
   4   2   1     2066.57     4109.12 <  1.914634
   3   2   4     6604.29     5687.11 o  1.908457
   1   4   3     7657.22     6462.57 o  1.906061
   3   0   5    30303.80    25163.64 o  1.886134
   0   2   6     4654.01     3842.05 o  1.885104
   2   4   2     5235.21     5677.71 o  1.877682
   2   0   6     2820.31     3191.11 o  1.875846
   4   1   3    22144.10    23350.99 o  1.870903
   1   3   5    15030.01    15241.72 o  1.862453
   4   2   2     8494.73     7798.31 o  1.850627
   3   3   3    17242.63    16903.01 o  1.845593
   3   1   5    28031.39    27306.17 o  1.844720
   1   2   6     3938.42     4061.12 o  1.841580
   2   1   6     2922.42     1627.59 <  1.835092
   0   4   4   146222.36   135811.62 o  1.806039
   2   4   3    28098.97    31302.55 o  1.779974
   4   0   4    98526.77    96250.08 o  1.774099
   1   4   4    24247.02    20686.95 o  1.767656
   4   2   3     2103.40     1236.87 <  1.756876
   3   4   0     5225.99     3228.53 <  1.753222
   1   0   7    46634.36    38914.55 o  1.748758
   2   3   5      239.91      154.03 <  1.744305
   4   3   0     7278.20     6788.09 o  1.740237
   4   1   4    21391.95    20084.50 o  1.739506
   3   4   1     9394.45     9816.02 o  1.736231
   3   2   5      119.87      122.36 o  1.735141
   1   5   0    47157.30    48758.64 o  1.734154
   2   2   6    11480.68     8112.34 o  1.727122
   4   3   1    10168.82     9262.98 o  1.723617
   3   3   4     7415.64     7270.96 o  1.719107
   1   5   1     7277.49     6916.89 o  1.717707
   1   1   7     8984.03     8789.45 o  1.715599
   5   0   1     1450.02     1094.80 <  1.707797
   5   1   0     2209.79     1119.59 <  1.692165
   3   4   2    15832.27    14344.34 o  1.688076
   5   1   1      482.69      671.83 o  1.676872
   4   3   2    18896.88    25873.40 o  1.676476
   1   5   2     4689.95     4588.17 o  1.671036
   1   3   6    30927.45    30263.90 o  1.669741
   2   4   4    56241.77    56627.35 o  1.665703
   0   4   5    57759.78    53456.13 o  1.657098
   3   1   6    65305.99    60483.89 o  1.656927
   0   2   7    25913.50    23879.53 o  1.656151
   4   2   4    42045.67    38812.98 o  1.646729
   2   5   0      500.09      706.58 o  1.637582
   5   1   2    41784.99    42899.81 o  1.633369
   1   4   5      119.03      121.33 o  1.627300
   1   2   7     9166.21     8937.91 o  1.626403
   2   5   1     2598.64     2386.56 o  1.623710
   2   1   7     3689.54     2742.98 <  1.621929
   3   4   3     2066.68     2077.85 <  1.616018
   5   2   0     3061.89     2056.11 <  1.606396
   4   3   3      497.43      334.62 <  1.605832
   4   1   5     5227.85     3504.33 <  1.605257
   1   5   3     6041.94     4021.60 <  1.601049
   5   2   1     1471.39      895.03 <  1.593296
   5   0   3       74.98       45.94 <  1.593015
   3   3   5      268.44      331.15 <  1.589184
   2   5   2       21.07      164.90 <  1.584119
   2   3   6        0.06        0.06 <  1.583016
   3   2   6        0.75        0.39 <  1.576157
   5   1   3    10782.08     8473.28 o  1.567828
   0   0   8   190072.88   172357.84 o  1.562660
   5   2   2       28.73       24.23 <  1.555838
   2   4   5      925.15      848.35 o  1.546712
   2   2   7      456.87      521.66 o  1.545941
   4   4   0    60584.04    60074.71 o  1.543873
   4   4   1     3828.87     7658.22 <  1.532233
   4   2   5     1018.99     1906.54 <  1.531484
   3   4   4     1434.93     1952.91 <  1.529062
   2   5   3     2015.66     2056.10 <  1.524118
   4   3   4     1529.21     1229.09 o  1.520425
   0   4   6    11866.84    10877.00 o  1.516972
   3   0   7      399.48      369.56 o  1.516781
   1   5   4    49603.12    46210.85 o  1.516363
   1   1   8    49857.83    46434.18 o  1.514913
   3   5   0   134775.48   132107.70 o  1.507222
   1   3   7     2400.77     2198.32 o  1.504383
   5   2   3     1505.05     1500.86 o  1.498880
   4   4   2    39188.38    39079.23 o  1.498831
   4   0   6    20497.76    20224.26 o  1.497897
   3   5   1     3273.13     3330.08 o  1.496385
   3   1   7     9832.33     7947.48 o  1.494991
   1   4   6     2804.09     2483.88 o  1.494012
   5   3   0    64532.36    68166.30 o  1.488508
   5   1   4     3835.87     4039.24 o  1.488050
   5   3   1     2650.32     2189.27 o  1.478067
   4   1   6     1723.71     1477.81 o  1.476900
   0   6   0    70829.66    68380.85 o  1.475293
   0   2   8   137686.50   124309.78 o  1.473513
   2   0   8   113915.50   100110.83 o  1.469078
   3   5   2    90288.31    89352.09 o  1.465227
   0   6   1      286.80      283.82 o  1.465126
   3   3   6    20499.91    20501.52 o  1.464354
   1   6   0    28098.17    23261.75 o  1.454149
   1   2   8       21.24       21.18 o  1.452443
   2   5   4      294.57      385.91 o  1.450524
   2   1   8      112.79      116.43 o  1.449255
   5   3   2   112850.56   110920.42 o  1.448016
   4   4   3     1622.37     1592.24 o  1.447708
   1   6   1      504.47      328.63 o  1.444410
   2   3   7    18589.36    18141.47 o  1.440027
   6   0   0    47592.31    45851.62 o  1.436632
   0   6   2    46486.48    44971.34 o  1.435842
   3   4   5    13894.57    13413.19 o  1.435474
   3   2   7    17536.86    17064.61 o  1.434858
   2   4   6     9058.12     8993.76 o  1.430924
   5   2   4     1374.89     1432.93 o  1.428718
   4   3   5    29393.78    29910.25 o  1.428321
   1   5   5     4620.85     2696.52 <  1.424952
   5   0   5     3249.56     3016.10 o  1.419279
   4   2   6    10245.14    10169.38 o  1.418841
   6   1   0    14924.11    15535.05 o  1.418077
   3   5   3     3668.69     3630.34 o  1.417358
   1   6   2    23753.07    23988.38 o  1.416327
   6   1   1     3367.72     3266.20 <  1.409041
   5   3   3      533.32      410.36 o  1.401762
   5   1   5    10767.96     8442.13 o  1.401380
   6   0   2    41368.01    32811.72 o  1.400127
   2   6   0    25444.93    22998.46 o  1.395784
   2   2   8    95134.86    83951.37 o  1.394276
   0   6   3    18315.27    12849.14 o  1.390709
   0   4   7     5891.55     4454.22 o  1.389776
   2   6   1     5587.05     4472.46 o  1.387165
   4   4   4    44078.89    49078.26 o  1.384195
   6   1   2    17601.21    19886.27 o  1.382934
   1   6   3     2140.95     1254.17 <  1.372955
   1   4   7     6454.56     4681.24 o  1.372057
   1   0   9     6152.21     4738.33 o  1.371340
   2   5   5    12255.66     9914.53 o  1.369903
   4   5   0       61.10       64.38 o  1.367930
   6   2   0    11910.67     9393.86 o  1.366448
   1   3   8    50994.56    46980.79 o  1.363559
   2   6   2    20289.42    19146.08 o  1.362234
   5   4   0       22.34       21.22 o  1.359981
   4   5   1      192.61      187.12 o  1.359814
   4   1   7    15658.85    15469.06 o  1.358767
   6   2   1       37.45       37.44 o  1.358357
   3   5   4    79429.02    80635.22 o  1.357595
   3   1   8    20434.72    20943.42 o  1.356554
   1   1   9      167.85      168.59 o  1.355174
   5   4   1     2182.80     1605.86 <  1.352005
   5   2   5     1609.89     1164.63 <  1.351490
   3   3   7    12800.46    10755.88 o  1.348978
   5   3   4    36606.73    39817.51 o  1.343871
   6   1   3      550.79      630.00 o  1.342472
   3   4   6     3348.67     4443.89 o  1.341485
   4   5   2      463.64      379.35 o  1.336304
   4   3   6     2637.81     2197.18 o  1.335642
   6   2   2    12481.42    10055.12 o  1.334922
   0   6   4    53758.90    42700.53 o  1.334123
   1   5   6     8113.84     6819.69 o  1.332886
   5   4   2     1786.39     1890.20 <  1.328891
   0   2   9      613.18      538.73 <  1.325295
   2   6   3      622.32      605.54 o  1.323512
   2   4   7    22271.85    21495.16 o  1.322708
   1   6   4     9637.97     8433.99 <  1.318425
   2   3   8       66.27       67.73 o  1.315090
   4   4   5     4119.81     3945.31 o  1.313619
   5   1   6    36825.16    35232.15 o  1.313534
   4   2   7     1213.47     1155.44 o  1.313147
   3   6   0     9857.02     8957.48 o  1.312403
   3   2   8      834.71      640.22 o  1.311149
   1   2   9    18243.73    13111.37 o  1.309903
   2   1   9    14204.67    11752.17 o  1.307562
   6   0   4    29047.46    27726.76 o  1.305328
   3   6   1     3226.65     3084.19 o  1.305230
   4   5   3     8343.66     8490.83 <  1.299693
   6   2   3     1670.99     1725.67 <  1.298422
   5   4   3     2794.83     1825.92 <  1.292870
   6   3   0    11269.10     7778.49 <  1.291661
   6   1   4     5211.59     3598.83 <  1.291362
   3   5   5     1457.63      993.62 <  1.290820
   2   5   6        1.37        1.33 <  1.287508
   6   3   1       60.67       30.59 <  1.284822
   3   6   2     5899.00     3010.16 <  1.284397
   5   3   5     7901.78     6644.90 o  1.279006
   0   4   8    63035.81    53457.20 o  1.276484
   2   6   4    23318.59    19724.38 o  1.274460
   5   2   6      350.66      343.16 o  1.272185
   0   6   5     4712.27     3381.90 <  1.270593
   2   2   9     8170.19     6854.75 o  1.266757
   4   0   8    42726.50    35050.56 o  1.265056
   6   3   2     2371.34     1935.23 o  1.264936
   1   4   8      264.32      214.79 <  1.262714
   1   6   5        4.93        3.34 <  1.257010
   4   5   4       16.51       15.03 o  1.253150
   4   1   8      104.05       94.15 o  1.252331
   6   2   4    13184.59    11747.01 o  1.252010
   3   6   3     2884.73     2558.20 o  1.251788
   1   7   0    66231.34    59033.14 o  1.251145
   3   4   7      610.20      543.88 o  1.251108
   3   0   9    18888.37    16697.25 o  1.250564
   0   0  10     4580.44     4292.95 o  1.250128
   5   4   4      257.37      211.24 <  1.247031
   4   3   7     2061.39     1986.90 o  1.246363
   1   7   1      485.23      457.95 o  1.244926
   3   3   8    22204.25    20851.28 o  1.244655
   1   5   7     2981.55     2802.15 o  1.244123
   1   3   9     4782.80     4516.26 o  1.243588
   4   4   6    21679.16    20447.35 o  1.240447
   5   0   7       62.43       58.88 o  1.240342
   3   1   9     9766.83     9291.84 o  1.238267
   5   5   0      141.64      119.28 <  1.235099
   6   3   3     3491.25     2994.42 <  1.233751
   6   1   5     5566.95     4755.38 <  1.233491
   5   5   1      755.92      622.34 o  1.229115
   5   1   7    12499.72     9616.26 o  1.228342
   1   7   2    17575.55    15459.42 o  1.226811
   7   0   1      448.04      440.40 o  1.225468
   1   1  10    13483.06    13113.27 o  1.225275
   2   4   8    46510.60    47578.77 o  1.223931
   3   5   6    29266.43    26083.51 o  1.221195
   7   1   0    10106.48     9273.20 o  1.219654
   2   6   5    16092.94    14827.15 o  1.218735
   4   6   0    12871.91    12026.19 o  1.217345
   4   2   8    28348.44    25813.91 o  1.216344
   7   1   1      282.78      256.55 o  1.213890
   2   7   0     5198.35     3795.51 o  1.213387
   5   5   2     1115.22      955.09 o  1.211671
   4   6   1     1024.56      879.64 o  1.211614
   5   3   6    47150.75    40192.25 o  1.211177
   3   6   4     4206.73     3690.20 o  1.210044
   2   7   1       57.07       49.92 <  1.207712
   2   5   7     2850.38     1782.89 <  1.206979
   2   3   9       73.10       49.75 <  1.206491
   6   4   0    13230.46    11042.94 o  1.204978
   0   6   6    23468.10    19722.02 o  1.204026
   3   2   9      710.99      609.76 o  1.203446
   0   2  10      835.57      765.74 o  1.203057
   2   0  10     1709.61     1154.72 <  1.200640
   4   5   5     5790.36     4102.41 <  1.200061
   6   4   1     1443.56      717.56 <  1.199419
   6   2   5      330.66      203.08 o  1.199059
   1   7   3     2398.50     1784.65 o  1.198299
   7   1   2    32171.94    26692.80 o  1.197078
   4   6   2    17637.01    17158.00 o  1.194895
   5   4   5     1365.30     1338.24 o  1.194683
   5   2   7      774.48      753.05 o  1.194328
   6   3   4     4829.72     4393.23 o  1.193729
   1   6   6     2237.98     1616.47 <  1.192449

